
     RDKit          3D

 30 18  0  0  0  0  0  0  0  0999 V2000
   -1.7846   -2.9425    1.2222 O   0  0  0  0  0  0  0  0  0  0  0  0
   -0.8922    1.7506   -0.1071 H   0  0  0  0  0  0  0  0  0  0  0  0
    2.8397   -3.7572    0.3447 H   0  0  0  0  0  0  0  0  0  0  0  0
    0.8634    0.2617   -0.2899 H   0  0  0  0  0  0  0  0  0  0  0  0
   -1.7483   -0.3715   -0.9272 H   0  0  0  0  0  0  0  0  0  0  0  0
    3.4482   -0.7508    2.9759 H   0  0  0  0  0  0  0  0  0  0  0  0
    2.1429   -2.3091   -1.5275 H   0  0  0  0  0  0  0  0  0  0  0  0
    2.6185    0.5196    0.9629 H   0  0  0  0  0  0  0  0  0  0  0  0
    1.1347   -0.9873    2.2653 H   0  0  0  0  0  0  0  0  0  0  0  0
   -2.4085   -1.5717   -1.5505 H   0  0  0  0  0  0  0  0  0  0  0  0
    2.7361   -0.2934    2.4134 O   0  0  0  0  0  0  0  0  0  0  0  0
    3.4382    0.6523   -0.2931 H   0  0  0  0  0  0  0  0  0  0  0  0
    2.5773    0.4807    2.9465 H   0  0  0  0  0  0  0  0  0  0  0  0
    1.6493    1.1112   -3.0705 O   0  0  0  0  0  0  0  0  0  0  0  0
   -0.9870   -2.4096    1.4375 H   0  0  0  0  0  0  0  0  0  0  0  0
   -1.4264   -3.4024    0.4121 H   0  0  0  0  0  0  0  0  0  0  0  0
    2.3630   -2.9956   -0.0225 O   0  0  0  0  0  0  0  0  0  0  0  0
    1.3323    0.6876   -3.8735 H   0  0  0  0  0  0  0  0  0  0  0  0
    0.4514   -2.1823    2.8382 H   0  0  0  0  0  0  0  0  0  0  0  0
   -1.5895    2.4980   -0.1304 O   0  0  0  0  0  0  0  0  0  0  0  0
   -2.5982   -0.7194   -1.1826 O   0  0  0  0  0  0  0  0  0  0  0  0
    1.8757   -2.6436    0.7600 H   0  0  0  0  0  0  0  0  0  0  0  0
    1.3276   -1.9648   -2.7638 H   0  0  0  0  0  0  0  0  0  0  0  0
   -2.2885    1.9893    0.3623 H   0  0  0  0  0  0  0  0  0  0  0  0
    0.0000    0.0000    0.0000 O   0  0  0  0  0  0  0  0  0  0  0  0
    2.1858    0.3922   -2.6465 H   0  0  0  0  0  0  0  0  0  0  0  0
    2.5841    0.8584    0.0133 O   0  0  0  0  0  0  0  0  0  0  0  0
    0.4294   -1.6058    2.0724 O   0  0  0  0  0  0  0  0  0  0  0  0
    0.3401   -0.6326    0.7328 H   0  0  0  0  0  0  0  0  0  0  0  0
    2.2696   -1.8808   -2.4173 O   0  0  0  0  0  0  0  0  0  0  0  0
 25  4  1  0
 28 19  1  0
 28  9  1  0
 21  5  1  0
 21 10  1  0
 27 12  1  0
 27  8  1  0
 11  6  1  0
 11 13  1  0
  1 16  1  0
  1 15  1  0
 17  3  1  0
 17 22  1  0
 30  7  1  0
 30 23  1  0
 20 24  1  0
 14 26  1  0
 14 18  1  0
M  END
$$$$
