
     RDKit          3D

 90 53  0  0  0  0  0  0  0  0999 V2000
   -5.1945   -1.5067    1.9635 O   0  0  0  0  0  0  0  0  0  0  0  0
   -2.9523   -0.6089    2.7212 H   0  0  0  0  0  0  0  0  0  0  0  0
   -5.3973   -2.4633    1.7736 H   0  0  0  0  0  0  0  0  0  0  0  0
    1.3857   -3.4249    5.2335 H   0  0  0  0  0  0  0  0  0  0  0  0
   -3.5970   -0.7797   -0.3250 O   0  0  0  0  0  0  0  0  0  0  0  0
    1.3469   -3.9083   -3.5428 H   0  0  0  0  0  0  0  0  0  0  0  0
    1.7277    0.1193    0.4019 H   0  0  0  0  0  0  0  0  0  0  0  0
    2.8668   -4.7431    1.0678 H   0  0  0  0  0  0  0  0  0  0  0  0
    1.1285    3.1024   -1.2264 O   0  0  0  0  0  0  0  0  0  0  0  0
   -1.1141    1.9226    3.4816 H   0  0  0  0  0  0  0  0  0  0  0  0
    1.9182   -3.2650    3.8275 H   0  0  0  0  0  0  0  0  0  0  0  0
    1.9470    5.4862    0.4524 H   0  0  0  0  0  0  0  0  0  0  0  0
   -3.1835   -2.0211   -1.6033 H   0  0  0  0  0  0  0  0  0  0  0  0
    0.4073   -4.7895   -1.3845 H   0  0  0  0  0  0  0  0  0  0  0  0
    0.7643   -5.5958   -0.9409 O   0  0  0  0  0  0  0  0  0  0  0  0
   -2.3871   -1.7269   -4.4971 O   0  0  0  0  0  0  0  0  0  0  0  0
    1.6990    1.6792    3.7026 H   0  0  0  0  0  0  0  0  0  0  0  0
    1.8306    3.3830    2.7586 O   0  0  0  0  0  0  0  0  0  0  0  0
   -1.0748   -3.1090    1.0048 H   0  0  0  0  0  0  0  0  0  0  0  0
   -2.5234   -5.1482   -0.4263 H   0  0  0  0  0  0  0  0  0  0  0  0
    4.8820    0.1593    2.6855 H   0  0  0  0  0  0  0  0  0  0  0  0
   -0.7727    2.7596    3.0533 O   0  0  0  0  0  0  0  0  0  0  0  0
   -2.9183   -2.1881   -3.8015 H   0  0  0  0  0  0  0  0  0  0  0  0
   -0.8885    2.4858    2.0862 H   0  0  0  0  0  0  0  0  0  0  0  0
    3.0014    0.4816   -0.3455 H   0  0  0  0  0  0  0  0  0  0  0  0
   -4.5652    2.9825    1.1075 H   0  0  0  0  0  0  0  0  0  0  0  0
    2.5798    0.6783   -2.0210 O   0  0  0  0  0  0  0  0  0  0  0  0
    3.7356   -5.6711    1.8790 H   0  0  0  0  0  0  0  0  0  0  0  0
   -0.2663   -0.3684   -0.8356 H   0  0  0  0  0  0  0  0  0  0  0  0
   -0.1010    2.9911   -3.6715 H   0  0  0  0  0  0  0  0  0  0  0  0
   -2.7171   -4.5570    0.9290 H   0  0  0  0  0  0  0  0  0  0  0  0
    0.3548   -1.8816   -2.9902 H   0  0  0  0  0  0  0  0  0  0  0  0
   -4.3860   -0.3577   -0.8414 H   0  0  0  0  0  0  0  0  0  0  0  0
    1.8099    3.4060   -0.5536 H   0  0  0  0  0  0  0  0  0  0  0  0
   -0.1872   -0.8291    0.6015 H   0  0  0  0  0  0  0  0  0  0  0  0
    2.0515    3.8164    1.9032 H   0  0  0  0  0  0  0  0  0  0  0  0
   -1.0980    2.8855   -0.1114 H   0  0  0  0  0  0  0  0  0  0  0  0
   -2.5657    1.5504    5.6897 H   0  0  0  0  0  0  0  0  0  0  0  0
   -1.6732    4.2685   -2.1234 H   0  0  0  0  0  0  0  0  0  0  0  0
    0.0316    0.7996   -3.8762 H   0  0  0  0  0  0  0  0  0  0  0  0
   -0.7850    1.4899    0.4597 H   0  0  0  0  0  0  0  0  0  0  0  0
   -1.3556    0.6659    5.5351 H   0  0  0  0  0  0  0  0  0  0  0  0
    1.7843   -2.8895    2.1513 O   0  0  0  0  0  0  0  0  0  0  0  0
    4.3696   -0.6746    2.4496 O   0  0  0  0  0  0  0  0  0  0  0  0
    0.3422    0.5691   -5.2982 H   0  0  0  0  0  0  0  0  0  0  0  0
    2.0621    0.9721    4.3432 O   0  0  0  0  0  0  0  0  0  0  0  0
   -3.0372   -2.8368   -2.1181 O   0  0  0  0  0  0  0  0  0  0  0  0
   -3.1004    3.8155   -1.9497 H   0  0  0  0  0  0  0  0  0  0  0  0
   -2.7079   -3.3946   -1.3383 H   0  0  0  0  0  0  0  0  0  0  0  0
   -0.6508   -2.2841    1.2008 O   0  0  0  0  0  0  0  0  0  0  0  0
    0.0000    0.0000    0.0000 O   0  0  0  0  0  0  0  0  0  0  0  0
    2.1951   -3.5741   -2.3801 H   0  0  0  0  0  0  0  0  0  0  0  0
   -4.1818    2.1088    0.9813 O   0  0  0  0  0  0  0  0  0  0  0  0
    2.1761   -3.6477    4.7099 O   0  0  0  0  0  0  0  0  0  0  0  0
    2.1924   -0.2103   -2.2073 H   0  0  0  0  0  0  0  0  0  0  0  0
    3.0075    1.1708    4.2751 H   0  0  0  0  0  0  0  0  0  0  0  0
   -2.4307   -4.3252    0.0422 O   0  0  0  0  0  0  0  0  0  0  0  0
   -1.8186   -0.1040    3.5899 H   0  0  0  0  0  0  0  0  0  0  0  0
    0.8140   -1.4863   -6.8135 H   0  0  0  0  0  0  0  0  0  0  0  0
   -3.2682    2.3950    0.6577 H   0  0  0  0  0  0  0  0  0  0  0  0
    2.7482   -0.0152    0.4905 O   0  0  0  0  0  0  0  0  0  0  0  0
   -3.1958    0.0634   -0.0617 H   0  0  0  0  0  0  0  0  0  0  0  0
    1.4052   -5.9533   -1.6234 H   0  0  0  0  0  0  0  0  0  0  0  0
   -2.9166   -1.0546   -4.9039 H   0  0  0  0  0  0  0  0  0  0  0  0
   -2.0822    1.1016    4.9961 O   0  0  0  0  0  0  0  0  0  0  0  0
    0.9349   -2.6091    1.7705 H   0  0  0  0  0  0  0  0  0  0  0  0
    3.8025   -0.3113    1.7109 H   0  0  0  0  0  0  0  0  0  0  0  0
   -1.0254   -1.1835   -3.1810 H   0  0  0  0  0  0  0  0  0  0  0  0
    3.4527    5.4929    0.5098 H   0  0  0  0  0  0  0  0  0  0  0  0
    0.3953    1.3121   -4.6391 O   0  0  0  0  0  0  0  0  0  0  0  0
   -1.4278    2.2273    0.4925 O   0  0  0  0  0  0  0  0  0  0  0  0
    0.5790   -1.8061   -5.3499 H   0  0  0  0  0  0  0  0  0  0  0  0
   -1.8559    5.2320   -0.2518 H   0  0  0  0  0  0  0  0  0  0  0  0
   -2.3891    4.2611   -1.4721 O   0  0  0  0  0  0  0  0  0  0  0  0
    1.3133   -3.4164   -2.7559 O   0  0  0  0  0  0  0  0  0  0  0  0
   -1.2778   -1.8468    1.8383 H   0  0  0  0  0  0  0  0  0  0  0  0
   -1.9282    5.8415    0.5146 O   0  0  0  0  0  0  0  0  0  0  0  0
    0.1682    3.7338   -2.3714 H   0  0  0  0  0  0  0  0  0  0  0  0
   -2.6032    6.4772    0.2383 H   0  0  0  0  0  0  0  0  0  0  0  0
   -0.4605    3.7762   -3.2158 O   0  0  0  0  0  0  0  0  0  0  0  0
   -2.0187   -0.7636    2.8863 O   0  0  0  0  0  0  0  0  0  0  0  0
    1.1731   -1.2515   -5.9412 O   0  0  0  0  0  0  0  0  0  0  0  0
   -0.0611   -0.9473   -2.9571 O   0  0  0  0  0  0  0  0  0  0  0  0
    3.7564   -5.0670    1.1921 O   0  0  0  0  0  0  0  0  0  0  0  0
    2.7114    4.8887    0.5885 O   0  0  0  0  0  0  0  0  0  0  0  0
    2.3214   -2.1283    2.1264 H   0  0  0  0  0  0  0  0  0  0  0  0
    1.6132    2.4420   -1.7092 H   0  0  0  0  0  0  0  0  0  0  0  0
    2.8304    0.8718   -2.9508 H   0  0  0  0  0  0  0  0  0  0  0  0
   -4.5476   -1.3355    1.2664 H   0  0  0  0  0  0  0  0  0  0  0  0
    0.8945    3.4338    2.8321 H   0  0  0  0  0  0  0  0  0  0  0  0
 51 29  1  0
 27 55  1  0
 27 88  1  0
 54 11  1  0
 54  4  1  0
 44 21  1  0
 44 67  1  0
 85 12  1  0
 85 69  1  0
 70 40  1  0
 70 45  1  0
 75  6  1  0
 75 52  1  0
 84  8  1  0
 84 28  1  0
  9 87  1  0
  9 34  1  0
 15 63  1  0
 15 14  1  0
 65 42  1  0
 65 38  1  0
 18 90  1  0
 18 36  1  0
 81 58  1  0
 81  2  1  0
 53 26  1  0
 53 60  1  0
 77 79  1  0
 77 73  1  0
 47 13  1  0
 47 49  1  0
  5 62  1  0
 22 10  1  0
 22 24  1  0
 71 37  1  0
 71 41  1  0
 46 56  1  0
 61 25  1  0
 80 30  1  0
 82 72  1  0
 82 59  1  0
 74 48  1  0
 74 39  1  0
 16 23  1  0
 16 64  1  0
  1  3  1  0
  1 89  1  0
 57 20  1  0
 57 31  1  0
 43 86  1  0
 43 66  1  0
 50 76  1  0
 50 19  1  0
M  END
$$$$
