
     RDKit          3D

210133  0  0  0  0  0  0  0  0999 V2000
   -5.6833    3.9101   -1.0784 H   0  0  0  0  0  0  0  0  0  0  0  0
    3.6530   -0.2889   -3.1410 H   0  0  0  0  0  0  0  0  0  0  0  0
   -4.9942   -5.7617    0.1273 O   0  0  0  0  0  0  0  0  0  0  0  0
   -4.9483    3.4258   -4.0475 O   0  0  0  0  0  0  0  0  0  0  0  0
    3.0725   -1.2827    3.9374 O   0  0  0  0  0  0  0  0  0  0  0  0
    3.6777   -1.9691    4.3003 H   0  0  0  0  0  0  0  0  0  0  0  0
   -5.7579   -4.7311    2.8120 O   0  0  0  0  0  0  0  0  0  0  0  0
    4.2226    3.4050    5.4235 H   0  0  0  0  0  0  0  0  0  0  0  0
   -2.9757    5.9762    0.5331 H   0  0  0  0  0  0  0  0  0  0  0  0
   -1.4904    1.9168    6.1715 O   0  0  0  0  0  0  0  0  0  0  0  0
    5.7426    2.1620   -3.1380 O   0  0  0  0  0  0  0  0  0  0  0  0
   -2.9776    1.8355    2.4650 H   0  0  0  0  0  0  0  0  0  0  0  0
   -3.0884   -3.7890   -5.0053 O   0  0  0  0  0  0  0  0  0  0  0  0
    3.5844   -0.2564    6.6142 H   0  0  0  0  0  0  0  0  0  0  0  0
    0.5569   -2.8122   -6.0536 H   0  0  0  0  0  0  0  0  0  0  0  0
   -1.4155   -3.9023   -5.9065 H   0  0  0  0  0  0  0  0  0  0  0  0
   -0.6821    2.9616   -4.2086 H   0  0  0  0  0  0  0  0  0  0  0  0
    0.9431   -1.1957   -2.6751 H   0  0  0  0  0  0  0  0  0  0  0  0
    5.7810   -1.7251   -1.7376 O   0  0  0  0  0  0  0  0  0  0  0  0
    0.6192    4.2841   -3.5460 O   0  0  0  0  0  0  0  0  0  0  0  0
   -8.0922   -1.0431   -1.1321 O   0  0  0  0  0  0  0  0  0  0  0  0
   -0.7701    2.0741   -4.5285 O   0  0  0  0  0  0  0  0  0  0  0  0
    5.8806    1.8090   -2.2404 H   0  0  0  0  0  0  0  0  0  0  0  0
    1.2667    1.1702    7.3891 H   0  0  0  0  0  0  0  0  0  0  0  0
   -0.6445    1.9301    6.6969 H   0  0  0  0  0  0  0  0  0  0  0  0
    0.4755    4.4089    4.9507 H   0  0  0  0  0  0  0  0  0  0  0  0
    1.3585   -6.1197   -1.0365 O   0  0  0  0  0  0  0  0  0  0  0  0
   -3.2015   -5.2567   -1.9910 O   0  0  0  0  0  0  0  0  0  0  0  0
    3.3988    0.4586   -4.5687 H   0  0  0  0  0  0  0  0  0  0  0  0
    1.1058   -2.6457    2.5980 O   0  0  0  0  0  0  0  0  0  0  0  0
   -0.2690   -5.0720    5.0900 H   0  0  0  0  0  0  0  0  0  0  0  0
    6.4292   -2.2470   -1.2130 H   0  0  0  0  0  0  0  0  0  0  0  0
   -4.9424   -0.1566    0.1918 H   0  0  0  0  0  0  0  0  0  0  0  0
    2.5481   -4.0769   -3.4621 H   0  0  0  0  0  0  0  0  0  0  0  0
   -2.6546   -1.4420   -2.1874 H   0  0  0  0  0  0  0  0  0  0  0  0
   -5.3653   -4.7326    1.9262 H   0  0  0  0  0  0  0  0  0  0  0  0
    2.4803   -0.4474   -1.8884 O   0  0  0  0  0  0  0  0  0  0  0  0
    2.7715   -0.7784    4.7041 H   0  0  0  0  0  0  0  0  0  0  0  0
    4.4637    1.0549   -0.5825 H   0  0  0  0  0  0  0  0  0  0  0  0
    1.8136   -4.2597    1.9993 H   0  0  0  0  0  0  0  0  0  0  0  0
    5.8671   -3.1993    1.0561 H   0  0  0  0  0  0  0  0  0  0  0  0
    5.8272    1.4214    0.0933 H   0  0  0  0  0  0  0  0  0  0  0  0
    0.1849   -2.2909    2.7177 H   0  0  0  0  0  0  0  0  0  0  0  0
   -4.6227    2.6409   -4.4951 H   0  0  0  0  0  0  0  0  0  0  0  0
   -5.1690    1.1630   -6.3097 H   0  0  0  0  0  0  0  0  0  0  0  0
    4.0563    0.0149   -4.0350 O   0  0  0  0  0  0  0  0  0  0  0  0
   -3.0197   -4.3325   -2.2534 H   0  0  0  0  0  0  0  0  0  0  0  0
   -6.0853    1.2377   -1.6178 H   0  0  0  0  0  0  0  0  0  0  0  0
   -2.8412    5.3606    3.8131 O   0  0  0  0  0  0  0  0  0  0  0  0
    2.8187    0.8956    5.8653 H   0  0  0  0  0  0  0  0  0  0  0  0
    4.9493    3.5913    6.0074 O   0  0  0  0  0  0  0  0  0  0  0  0
   -5.8631   -1.9753   -4.4864 H   0  0  0  0  0  0  0  0  0  0  0  0
   -2.8477    5.7384    2.9162 H   0  0  0  0  0  0  0  0  0  0  0  0
   -0.7219    2.2761    1.8333 H   0  0  0  0  0  0  0  0  0  0  0  0
    4.7080   -4.2959   -3.2702 H   0  0  0  0  0  0  0  0  0  0  0  0
    3.5853   -5.6970    2.1533 H   0  0  0  0  0  0  0  0  0  0  0  0
    0.9061    3.6948   -0.5338 O   0  0  0  0  0  0  0  0  0  0  0  0
   -2.4134    0.9469   -3.3669 H   0  0  0  0  0  0  0  0  0  0  0  0
   -2.5669   -4.2381    1.3359 H   0  0  0  0  0  0  0  0  0  0  0  0
   -3.8236   -3.2170    6.6972 H   0  0  0  0  0  0  0  0  0  0  0  0
   -3.3427    3.4958    3.9017 H   0  0  0  0  0  0  0  0  0  0  0  0
   -7.7864   -1.7607   -0.5116 H   0  0  0  0  0  0  0  0  0  0  0  0
   -5.5829   -0.5045    1.5134 H   0  0  0  0  0  0  0  0  0  0  0  0
   -0.1978   -0.0199    0.3104 O   0  0  0  0  0  0  0  0  0  0  0  0
    0.2656    4.4647   -2.6673 H   0  0  0  0  0  0  0  0  0  0  0  0
    1.5599   -0.1015   -5.7255 H   0  0  0  0  0  0  0  0  0  0  0  0
   -5.1875    3.2055   -2.2834 H   0  0  0  0  0  0  0  0  0  0  0  0
    5.0439    1.6219   -3.5417 H   0  0  0  0  0  0  0  0  0  0  0  0
    1.7923    0.8130   -5.4690 O   0  0  0  0  0  0  0  0  0  0  0  0
   -1.3157   -1.2413    2.5630 O   0  0  0  0  0  0  0  0  0  0  0  0
    0.4079   -0.6507   -0.0148 H   0  0  0  0  0  0  0  0  0  0  0  0
    5.3528    4.2839   -0.7002 H   0  0  0  0  0  0  0  0  0  0  0  0
   -1.3755   -2.1644   -2.4624 H   0  0  0  0  0  0  0  0  0  0  0  0
   -4.7753   -0.3663    1.0981 O   0  0  0  0  0  0  0  0  0  0  0  0
   -1.8999   -0.9491    5.2562 O   0  0  0  0  0  0  0  0  0  0  0  0
   -3.7626   -4.0654    5.0870 H   0  0  0  0  0  0  0  0  0  0  0  0
    3.8856   -7.1387    2.5579 H   0  0  0  0  0  0  0  0  0  0  0  0
   -4.4213   -5.5687   -0.7006 H   0  0  0  0  0  0  0  0  0  0  0  0
   -3.3887    0.7895    1.4353 H   0  0  0  0  0  0  0  0  0  0  0  0
    0.3281    6.5016    3.9207 H   0  0  0  0  0  0  0  0  0  0  0  0
    1.9744    0.3662   -1.6934 H   0  0  0  0  0  0  0  0  0  0  0  0
   -4.5103    1.0579   -5.5825 O   0  0  0  0  0  0  0  0  0  0  0  0
    2.5693    6.7499    0.0476 H   0  0  0  0  0  0  0  0  0  0  0  0
   -1.5768    0.9931    5.8584 H   0  0  0  0  0  0  0  0  0  0  0  0
   -2.8897    2.2159    4.7626 H   0  0  0  0  0  0  0  0  0  0  0  0
    1.7061   -4.1656   -2.9369 O   0  0  0  0  0  0  0  0  0  0  0  0
    2.5134   -1.5206    1.5297 H   0  0  0  0  0  0  0  0  0  0  0  0
    3.0120    1.9814    0.0381 O   0  0  0  0  0  0  0  0  0  0  0  0
   -3.5459   -2.9634   -4.7617 H   0  0  0  0  0  0  0  0  0  0  0  0
    5.6581   -2.2488    1.1684 O   0  0  0  0  0  0  0  0  0  0  0  0
   -2.2844   -2.3511   -2.0835 O   0  0  0  0  0  0  0  0  0  0  0  0
    2.6890   -0.9909   -1.0937 H   0  0  0  0  0  0  0  0  0  0  0  0
    0.0761    6.5874    2.0513 O   0  0  0  0  0  0  0  0  0  0  0  0
    3.0922    5.6505   -3.1586 O   0  0  0  0  0  0  0  0  0  0  0  0
   -2.4663   -2.3307   -0.2677 H   0  0  0  0  0  0  0  0  0  0  0  0
   -2.0642    5.5989    0.5685 O   0  0  0  0  0  0  0  0  0  0  0  0
    0.3355    3.5367    4.6033 O   0  0  0  0  0  0  0  0  0  0  0  0
    0.7813    5.9863    1.7045 H   0  0  0  0  0  0  0  0  0  0  0  0
    0.3869    3.5878    0.3164 H   0  0  0  0  0  0  0  0  0  0  0  0
   -2.4030   -5.4324   -1.4987 H   0  0  0  0  0  0  0  0  0  0  0  0
    1.1081    2.6824    7.8804 H   0  0  0  0  0  0  0  0  0  0  0  0
   -1.6220   -6.7252    0.5768 H   0  0  0  0  0  0  0  0  0  0  0  0
    4.0012    0.1948    2.9105 H   0  0  0  0  0  0  0  0  0  0  0  0
   -3.1701   -4.5601    3.7055 H   0  0  0  0  0  0  0  0  0  0  0  0
    2.0154   -5.1325    1.6220 O   0  0  0  0  0  0  0  0  0  0  0  0
   -0.7924    6.1757    1.7933 H   0  0  0  0  0  0  0  0  0  0  0  0
    4.9451    4.0533    0.1190 O   0  0  0  0  0  0  0  0  0  0  0  0
   -5.2068   -2.8017    6.3632 H   0  0  0  0  0  0  0  0  0  0  0  0
   -0.1946   -1.7557    5.8850 H   0  0  0  0  0  0  0  0  0  0  0  0
    2.6900    0.1849    6.4608 O   0  0  0  0  0  0  0  0  0  0  0  0
    0.8603    2.4631   -1.7784 H   0  0  0  0  0  0  0  0  0  0  0  0
   -0.3025    7.0711    5.1280 H   0  0  0  0  0  0  0  0  0  0  0  0
   -7.2649   -0.4529    2.8141 O   0  0  0  0  0  0  0  0  0  0  0  0
    1.0862   -2.0420   -5.9778 O   0  0  0  0  0  0  0  0  0  0  0  0
   -3.5546    2.4938    4.1282 O   0  0  0  0  0  0  0  0  0  0  0  0
   -0.2101    0.6706   -0.2955 H   0  0  0  0  0  0  0  0  0  0  0  0
    3.0054   -1.2530    0.7459 O   0  0  0  0  0  0  0  0  0  0  0  0
    0.0468    1.5989   -2.8095 H   0  0  0  0  0  0  0  0  0  0  0  0
   -1.8563   -1.7802    1.8607 H   0  0  0  0  0  0  0  0  0  0  0  0
    4.5751   -2.8329   -2.9061 H   0  0  0  0  0  0  0  0  0  0  0  0
    1.4527   -3.2514   -2.9027 H   0  0  0  0  0  0  0  0  0  0  0  0
    2.9231    2.3148    4.7699 O   0  0  0  0  0  0  0  0  0  0  0  0
   -4.6293    4.2089   -4.5973 H   0  0  0  0  0  0  0  0  0  0  0  0
   -3.6005   -1.9589    0.7559 H   0  0  0  0  0  0  0  0  0  0  0  0
    0.3970    1.5729   -1.9058 O   0  0  0  0  0  0  0  0  0  0  0  0
   -0.2700   -5.6453   -5.3290 H   0  0  0  0  0  0  0  0  0  0  0  0
   -0.5973    6.7681   -1.6776 O   0  0  0  0  0  0  0  0  0  0  0  0
   -6.0678    1.2277    4.7455 O   0  0  0  0  0  0  0  0  0  0  0  0
   -0.9775   -0.5306    1.9822 H   0  0  0  0  0  0  0  0  0  0  0  0
   -1.1377    6.5023   -0.8828 H   0  0  0  0  0  0  0  0  0  0  0  0
   -7.2174   -0.7863   -1.5489 H   0  0  0  0  0  0  0  0  0  0  0  0
    2.5665    6.3102   -1.4045 H   0  0  0  0  0  0  0  0  0  0  0  0
   -5.7907    0.2862   -1.6313 O   0  0  0  0  0  0  0  0  0  0  0  0
   -1.8419   -1.0844    4.2562 H   0  0  0  0  0  0  0  0  0  0  0  0
   -0.5498   -4.0869   -6.3390 O   0  0  0  0  0  0  0  0  0  0  0  0
   -5.4748    3.0173   -1.3577 O   0  0  0  0  0  0  0  0  0  0  0  0
   -4.8123   -0.8715   -4.6443 H   0  0  0  0  0  0  0  0  0  0  0  0
    0.1688   -1.5909   -3.1913 O   0  0  0  0  0  0  0  0  0  0  0  0
   -1.3682   -6.9072   -0.3808 O   0  0  0  0  0  0  0  0  0  0  0  0
    4.9086    1.2449    2.3535 H   0  0  0  0  0  0  0  0  0  0  0  0
   -4.8901   -1.8267   -4.4368 O   0  0  0  0  0  0  0  0  0  0  0  0
    4.0177    1.1576    2.6106 O   0  0  0  0  0  0  0  0  0  0  0  0
    2.1816    2.3749   -0.2677 H   0  0  0  0  0  0  0  0  0  0  0  0
   -5.0351    0.2966   -2.2348 H   0  0  0  0  0  0  0  0  0  0  0  0
   -3.2878   -5.6484    1.3410 H   0  0  0  0  0  0  0  0  0  0  0  0
    3.4044    6.4864   -3.6522 H   0  0  0  0  0  0  0  0  0  0  0  0
    1.2166   -5.5210    2.0642 H   0  0  0  0  0  0  0  0  0  0  0  0
    4.0934    3.7556   -0.1645 H   0  0  0  0  0  0  0  0  0  0  0  0
   -0.2985   -5.9437    3.3193 O   0  0  0  0  0  0  0  0  0  0  0  0
    3.9270   -1.5461    0.8640 H   0  0  0  0  0  0  0  0  0  0  0  0
   -3.8321    2.8915   -0.7105 H   0  0  0  0  0  0  0  0  0  0  0  0
    0.2822    6.9556   -1.3524 H   0  0  0  0  0  0  0  0  0  0  0  0
   -0.9546   -5.5207    2.6898 H   0  0  0  0  0  0  0  0  0  0  0  0
   -3.5741   -4.8290    4.5099 O   0  0  0  0  0  0  0  0  0  0  0  0
    0.2194   -4.9585    5.9627 O   0  0  0  0  0  0  0  0  0  0  0  0
    7.3500    1.7738    1.7783 H   0  0  0  0  0  0  0  0  0  0  0  0
    5.6471   -0.9567   -1.2533 H   0  0  0  0  0  0  0  0  0  0  0  0
    1.0472   -5.3856    5.7438 H   0  0  0  0  0  0  0  0  0  0  0  0
    1.5462    4.5257   -3.5907 H   0  0  0  0  0  0  0  0  0  0  0  0
    4.3950   -3.4742   -3.6178 O   0  0  0  0  0  0  0  0  0  0  0  0
   -2.6334   -5.1142    1.8140 O   0  0  0  0  0  0  0  0  0  0  0  0
    0.4689   -3.1855    6.1997 H   0  0  0  0  0  0  0  0  0  0  0  0
   -0.0671    3.3096    2.8352 H   0  0  0  0  0  0  0  0  0  0  0  0
    5.4530    0.8845   -0.6593 O   0  0  0  0  0  0  0  0  0  0  0  0
    3.1125    1.6030    0.9154 H   0  0  0  0  0  0  0  0  0  0  0  0
    0.1047   -6.0230   -3.9542 H   0  0  0  0  0  0  0  0  0  0  0  0
   -2.8971    2.7038   -0.7428 O   0  0  0  0  0  0  0  0  0  0  0  0
   -2.1363    4.7425    0.0995 H   0  0  0  0  0  0  0  0  0  0  0  0
   -1.1103    2.1248   -5.4214 H   0  0  0  0  0  0  0  0  0  0  0  0
    6.3219   -1.9908    1.8875 H   0  0  0  0  0  0  0  0  0  0  0  0
    5.2197    4.5176    6.0122 H   0  0  0  0  0  0  0  0  0  0  0  0
    0.3339   -1.6327   -4.1658 H   0  0  0  0  0  0  0  0  0  0  0  0
   -0.3537   -6.4225   -4.7073 O   0  0  0  0  0  0  0  0  0  0  0  0
   -3.7033   -4.5487   -4.7960 H   0  0  0  0  0  0  0  0  0  0  0  0
    1.0260    1.1184   -4.9027 H   0  0  0  0  0  0  0  0  0  0  0  0
    2.0268   -2.4203   -6.1902 H   0  0  0  0  0  0  0  0  0  0  0  0
   -5.8790   -5.3445   -0.0473 H   0  0  0  0  0  0  0  0  0  0  0  0
    1.4460   -5.4176   -1.7049 H   0  0  0  0  0  0  0  0  0  0  0  0
   -0.4104    3.1741    5.1605 H   0  0  0  0  0  0  0  0  0  0  0  0
    3.9020    5.2211   -3.0098 H   0  0  0  0  0  0  0  0  0  0  0  0
   -0.3729    3.1561    1.9343 O   0  0  0  0  0  0  0  0  0  0  0  0
    1.4712   -5.6656   -0.1295 H   0  0  0  0  0  0  0  0  0  0  0  0
   -5.0409   -4.8014    3.4782 H   0  0  0  0  0  0  0  0  0  0  0  0
   -4.3109   -2.6221    6.0903 O   0  0  0  0  0  0  0  0  0  0  0  0
    2.0639    2.7621    4.6619 H   0  0  0  0  0  0  0  0  0  0  0  0
    4.2686   -6.3025    2.5013 O   0  0  0  0  0  0  0  0  0  0  0  0
    0.4969    6.5411    4.8847 O   0  0  0  0  0  0  0  0  0  0  0  0
   -6.7853    0.0608    3.4700 H   0  0  0  0  0  0  0  0  0  0  0  0
    0.6192   -2.2071    6.2366 O   0  0  0  0  0  0  0  0  0  0  0  0
   -0.8552   -4.3395   -7.2084 H   0  0  0  0  0  0  0  0  0  0  0  0
   -2.6512    2.2431    0.0766 H   0  0  0  0  0  0  0  0  0  0  0  0
    1.6293   -2.3367    3.3141 H   0  0  0  0  0  0  0  0  0  0  0  0
    7.2160    1.3941    3.3555 H   0  0  0  0  0  0  0  0  0  0  0  0
   -2.8559   -2.5695    0.6226 O   0  0  0  0  0  0  0  0  0  0  0  0
   -2.9097    0.5549   -2.6356 O   0  0  0  0  0  0  0  0  0  0  0  0
   -2.6981   -1.3931    5.5551 H   0  0  0  0  0  0  0  0  0  0  0  0
   -5.1321    1.4533    4.6466 H   0  0  0  0  0  0  0  0  0  0  0  0
   -0.3780   -6.8785   -0.4793 H   0  0  0  0  0  0  0  0  0  0  0  0
   -2.6825    1.3977    1.6839 O   0  0  0  0  0  0  0  0  0  0  0  0
    1.3257    4.5122   -0.4091 H   0  0  0  0  0  0  0  0  0  0  0  0
   -3.6102    1.0351   -5.8923 H   0  0  0  0  0  0  0  0  0  0  0  0
    2.0958    6.2036   -0.6121 O   0  0  0  0  0  0  0  0  0  0  0  0
    0.6917    1.8541    7.7372 O   0  0  0  0  0  0  0  0  0  0  0  0
    6.7389    1.7114    2.5150 O   0  0  0  0  0  0  0  0  0  0  0  0
    3.1666    2.1202    3.8442 H   0  0  0  0  0  0  0  0  0  0  0  0
   -7.6760   -1.2013    3.1991 H   0  0  0  0  0  0  0  0  0  0  0  0
   -2.8625    1.2733   -1.9469 H   0  0  0  0  0  0  0  0  0  0  0  0
   -6.5391    2.0487    4.7122 H   0  0  0  0  0  0  0  0  0  0  0  0
   -0.4030   -6.8922    3.0708 H   0  0  0  0  0  0  0  0  0  0  0  0
   -2.4101    5.9129    4.5202 H   0  0  0  0  0  0  0  0  0  0  0  0
 86121  1  0
 86 34  1  0
161145  1  0
161 59  1  0
 28 47  1  0
 28100  1  0
 74 33  1  0
 74 63  1  0
135 16  1  0
135190  1  0
 82 45  1  0
 82201  1  0
 27178  1  0
141 52  1  0
141137  1  0
 91 35  1  0
 91 73  1  0
 13 89  1  0
 13174  1  0
160120  1  0
160 55  1  0
195207  1  0
195 58  1  0
133144  1  0
133 48  1  0
  3177  1  0
173126  1  0
173166  1  0
139102  1  0
139198  1  0
114 15  1  0
  7 36  1  0
  7183  1  0
  5 38  1  0
  5  6  1  0
 30192  1  0
 30 43  1  0
155158  1  0
155 31  1  0
184 60  1  0
184108  1  0
105 40  1  0
105147  1  0
149153  1  0
149209  1  0
154 76  1  0
154104  1  0
189162  1  0
189109  1  0
 70129  1  0
203 24  1  0
203101  1  0
113206  1  0
113188  1  0
 22 17  1  0
 22169  1  0
181163  1  0
181 54  1  0
 94180  1  0
 57 99  1  0
 57200  1  0
 20 65  1  0
 20159  1  0
  4 44  1  0
  4123  1  0
202 83  1  0
202132  1  0
 21131  1  0
 21 62  1  0
136 67  1  0
136  1  1  0
194124  1  0
194 95  1  0
 69 66  1  0
 69175  1  0
125118  1  0
125111  1  0
 49 53  1  0
 49210  1  0
 88143  1  0
 88165  1  0
128208  1  0
128197  1  0
199 79  1  0
199 12  1  0
167151  1  0
167191  1  0
 10 84  1  0
 10 25  1  0
127152  1  0
127130  1  0
 93106  1  0
 93 98  1  0
 96  9  1  0
 96168  1  0
 97179  1  0
 97 26  1  0
 64116  1  0
 64 71  1  0
115 85  1  0
 75134  1  0
 75196  1  0
187 80  1  0
187112  1  0
110 14  1  0
110 50  1  0
 37 92  1  0
 37 81  1  0
138 18  1  0
138172  1  0
 19 32  1  0
 19157  1  0
117150  1  0
117 87  1  0
 90 41  1  0
 90170  1  0
186 56  1  0
186 77  1  0
204193  1  0
204156  1  0
 46 29  1  0
164 42  1  0
164 39  1  0
 11 68  1  0
 11 23  1  0
122185  1  0
122205  1  0
142140  1  0
142103  1  0
107 72  1  0
107148  1  0
 51171  1  0
 51  8  1  0
M  END
$$$$
