
     RDKit          3D

240153  0  0  0  0  0  0  0  0999 V2000
   -5.7375   -1.7693   -1.9710 O   0  0  0  0  0  0  0  0  0  0  0  0
   -5.8506    4.9278   -4.3266 O   0  0  0  0  0  0  0  0  0  0  0  0
   -4.4028    0.8000   -6.7246 H   0  0  0  0  0  0  0  0  0  0  0  0
    2.2405   -1.3658    2.0949 H   0  0  0  0  0  0  0  0  0  0  0  0
    0.4651   -2.6818    0.7453 H   0  0  0  0  0  0  0  0  0  0  0  0
   -7.5942    1.1129    3.0414 H   0  0  0  0  0  0  0  0  0  0  0  0
    4.7068   -3.0324    4.2380 H   0  0  0  0  0  0  0  0  0  0  0  0
    1.2068    5.8134   -2.3898 H   0  0  0  0  0  0  0  0  0  0  0  0
    1.3944    1.2893    3.2460 O   0  0  0  0  0  0  0  0  0  0  0  0
   -1.7320   -2.6238   -2.0458 H   0  0  0  0  0  0  0  0  0  0  0  0
    5.8027    0.8851   -0.3926 H   0  0  0  0  0  0  0  0  0  0  0  0
   -5.6459   -5.6529    1.4939 O   0  0  0  0  0  0  0  0  0  0  0  0
    3.1288   -4.0209   -0.3331 H   0  0  0  0  0  0  0  0  0  0  0  0
   -5.0425   -1.1794   -2.2726 H   0  0  0  0  0  0  0  0  0  0  0  0
   -6.1887    3.9673    1.0927 H   0  0  0  0  0  0  0  0  0  0  0  0
    4.7325   -3.8152    4.8254 O   0  0  0  0  0  0  0  0  0  0  0  0
   -4.1125    4.1727    1.0116 H   0  0  0  0  0  0  0  0  0  0  0  0
   -1.2322    1.0612   -3.8740 O   0  0  0  0  0  0  0  0  0  0  0  0
    1.2554   -1.3995    1.8861 O   0  0  0  0  0  0  0  0  0  0  0  0
    4.4031   -4.6296   -2.7970 O   0  0  0  0  0  0  0  0  0  0  0  0
    2.6622   -3.8205   -1.1375 O   0  0  0  0  0  0  0  0  0  0  0  0
   -1.1401   -4.4907    6.4035 H   0  0  0  0  0  0  0  0  0  0  0  0
   -4.1825    0.8568    2.7520 O   0  0  0  0  0  0  0  0  0  0  0  0
    1.1043    8.1335   -1.5405 H   0  0  0  0  0  0  0  0  0  0  0  0
   -7.1317    4.2523    1.1346 O   0  0  0  0  0  0  0  0  0  0  0  0
    3.3200    0.3655   -6.2585 H   0  0  0  0  0  0  0  0  0  0  0  0
   -1.9865    1.2411    5.2913 H   0  0  0  0  0  0  0  0  0  0  0  0
    2.2040    6.0685   -5.8148 H   0  0  0  0  0  0  0  0  0  0  0  0
    1.3631    6.2598    0.8969 O   0  0  0  0  0  0  0  0  0  0  0  0
   -7.1328   -4.3940   -0.9707 H   0  0  0  0  0  0  0  0  0  0  0  0
   -4.3442    6.3684    0.4805 H   0  0  0  0  0  0  0  0  0  0  0  0
    0.7132    1.9785    3.3768 H   0  0  0  0  0  0  0  0  0  0  0  0
   -5.2481    1.9819   -2.4377 H   0  0  0  0  0  0  0  0  0  0  0  0
   -1.8334    4.6233   -0.3394 H   0  0  0  0  0  0  0  0  0  0  0  0
    3.4902    4.6313    1.7485 O   0  0  0  0  0  0  0  0  0  0  0  0
   -6.2391   -3.5150   -1.8633 H   0  0  0  0  0  0  0  0  0  0  0  0
   -0.9637    1.9837   -3.7443 H   0  0  0  0  0  0  0  0  0  0  0  0
   -3.6890    5.9856    1.0891 O   0  0  0  0  0  0  0  0  0  0  0  0
   -1.4653    3.1728    6.4041 O   0  0  0  0  0  0  0  0  0  0  0  0
   -1.5836   -3.2156    3.2790 O   0  0  0  0  0  0  0  0  0  0  0  0
    0.9551    5.2032    4.0841 H   0  0  0  0  0  0  0  0  0  0  0  0
   -2.2584   -1.6156    6.6166 O   0  0  0  0  0  0  0  0  0  0  0  0
    6.0765    1.5671   -2.3050 O   0  0  0  0  0  0  0  0  0  0  0  0
   -6.9044   -1.0869    1.4985 H   0  0  0  0  0  0  0  0  0  0  0  0
    0.7042   -0.9178   -3.6121 O   0  0  0  0  0  0  0  0  0  0  0  0
    5.2973    0.7514    0.4504 O   0  0  0  0  0  0  0  0  0  0  0  0
    8.3365   -0.0011   -1.9494 O   0  0  0  0  0  0  0  0  0  0  0  0
    1.6224    7.0057   -0.6180 H   0  0  0  0  0  0  0  0  0  0  0  0
    1.7476   -3.7612   -0.8146 H   0  0  0  0  0  0  0  0  0  0  0  0
   -0.6391    4.2091    3.1493 H   0  0  0  0  0  0  0  0  0  0  0  0
    5.1525    1.8994   -2.3294 H   0  0  0  0  0  0  0  0  0  0  0  0
   -1.1375    0.3883   -7.0993 H   0  0  0  0  0  0  0  0  0  0  0  0
   -6.5650   -1.8105    0.9114 O   0  0  0  0  0  0  0  0  0  0  0  0
   -1.1798   -1.7885   -7.1576 H   0  0  0  0  0  0  0  0  0  0  0  0
    6.6295   -3.2579   -1.5365 O   0  0  0  0  0  0  0  0  0  0  0  0
    7.3708    1.4603    2.1635 O   0  0  0  0  0  0  0  0  0  0  0  0
   -3.6160   -1.8518    1.3935 O   0  0  0  0  0  0  0  0  0  0  0  0
   -2.3025    3.3008    6.8950 H   0  0  0  0  0  0  0  0  0  0  0  0
    4.4196    5.9899   -2.2580 O   0  0  0  0  0  0  0  0  0  0  0  0
   -1.5056   -1.3693    6.0446 H   0  0  0  0  0  0  0  0  0  0  0  0
    0.4818   -0.5393    0.3113 H   0  0  0  0  0  0  0  0  0  0  0  0
    3.7609    1.3015    0.7317 H   0  0  0  0  0  0  0  0  0  0  0  0
   -5.2237    2.0412   -6.5409 H   0  0  0  0  0  0  0  0  0  0  0  0
   -4.9444   -5.1422    1.9130 H   0  0  0  0  0  0  0  0  0  0  0  0
    7.0374   -1.9705    1.7888 H   0  0  0  0  0  0  0  0  0  0  0  0
   -6.0547    0.6508    2.8006 H   0  0  0  0  0  0  0  0  0  0  0  0
    4.5038    0.2146   -5.4086 H   0  0  0  0  0  0  0  0  0  0  0  0
   -4.8354    1.3340   -6.0602 O   0  0  0  0  0  0  0  0  0  0  0  0
    3.7535    4.6453    2.7105 H   0  0  0  0  0  0  0  0  0  0  0  0
   -3.0945   -2.1111    0.6152 H   0  0  0  0  0  0  0  0  0  0  0  0
   -1.5913    1.7691    1.2118 O   0  0  0  0  0  0  0  0  0  0  0  0
   -3.2477   -1.7037   -4.6972 O   0  0  0  0  0  0  0  0  0  0  0  0
   -6.6721    4.5427   -4.7167 H   0  0  0  0  0  0  0  0  0  0  0  0
   -5.6395   -0.3106   -5.2999 H   0  0  0  0  0  0  0  0  0  0  0  0
    0.8436   -0.6997    2.4120 H   0  0  0  0  0  0  0  0  0  0  0  0
   -1.8236   -4.0977    2.9709 H   0  0  0  0  0  0  0  0  0  0  0  0
    0.6925    3.0262   -1.7580 H   0  0  0  0  0  0  0  0  0  0  0  0
   -0.9609    4.5231   -6.5096 O   0  0  0  0  0  0  0  0  0  0  0  0
    1.2828    6.7745    4.2634 H   0  0  0  0  0  0  0  0  0  0  0  0
    4.9437   -3.7857    1.0710 H   0  0  0  0  0  0  0  0  0  0  0  0
    5.9840    0.9340    1.0889 H   0  0  0  0  0  0  0  0  0  0  0  0
    8.2864    1.3750    1.8102 H   0  0  0  0  0  0  0  0  0  0  0  0
    5.5230   -0.4561   -3.4822 H   0  0  0  0  0  0  0  0  0  0  0  0
    3.6280    3.4311   -3.0623 O   0  0  0  0  0  0  0  0  0  0  0  0
   -5.9110   -1.1606   -5.0011 O   0  0  0  0  0  0  0  0  0  0  0  0
   -1.1943   -3.2072   -4.0800 O   0  0  0  0  0  0  0  0  0  0  0  0
   -4.7378    2.5552   -3.1073 O   0  0  0  0  0  0  0  0  0  0  0  0
    3.8763   -4.2146    4.8290 H   0  0  0  0  0  0  0  0  0  0  0  0
    3.8706    4.1448    5.1853 H   0  0  0  0  0  0  0  0  0  0  0  0
    5.3391   -3.4296   -5.2285 O   0  0  0  0  0  0  0  0  0  0  0  0
   -7.1105   -2.5918    1.0860 H   0  0  0  0  0  0  0  0  0  0  0  0
   -1.9557   -2.6169    2.6170 H   0  0  0  0  0  0  0  0  0  0  0  0
   -2.7678   -1.3985   -5.4410 H   0  0  0  0  0  0  0  0  0  0  0  0
    4.9625   -3.9904   -4.4975 H   0  0  0  0  0  0  0  0  0  0  0  0
    6.6147   -2.6233    1.1990 O   0  0  0  0  0  0  0  0  0  0  0  0
   -1.8298   -2.2615    7.1842 H   0  0  0  0  0  0  0  0  0  0  0  0
   -0.0112   -3.4379    0.2940 O   0  0  0  0  0  0  0  0  0  0  0  0
   -2.1370    4.3453   -3.0949 H   0  0  0  0  0  0  0  0  0  0  0  0
   -1.0014    4.2100   -5.5340 H   0  0  0  0  0  0  0  0  0  0  0  0
    4.0879    5.0606   -2.2417 H   0  0  0  0  0  0  0  0  0  0  0  0
    3.2645    2.7412    0.8844 H   0  0  0  0  0  0  0  0  0  0  0  0
   -0.4566   -5.7583   -3.2770 O   0  0  0  0  0  0  0  0  0  0  0  0
   -5.3829    1.8506    0.0657 H   0  0  0  0  0  0  0  0  0  0  0  0
    1.4965    5.0976   -3.7170 H   0  0  0  0  0  0  0  0  0  0  0  0
    4.7988   -0.9877   -3.8072 O   0  0  0  0  0  0  0  0  0  0  0  0
   -0.5558    4.4548   -3.6066 H   0  0  0  0  0  0  0  0  0  0  0  0
    2.7822    3.0498   -2.8533 H   0  0  0  0  0  0  0  0  0  0  0  0
   -0.3780    4.9064   -0.6868 H   0  0  0  0  0  0  0  0  0  0  0  0
    2.1355   -5.9334   -4.3899 O   0  0  0  0  0  0  0  0  0  0  0  0
    6.6051    2.2825   -2.7440 H   0  0  0  0  0  0  0  0  0  0  0  0
    3.3270   -2.7059   -7.2972 O   0  0  0  0  0  0  0  0  0  0  0  0
   -2.6385   -1.4969   -1.4296 H   0  0  0  0  0  0  0  0  0  0  0  0
    0.1077    0.0082   -0.3805 O   0  0  0  0  0  0  0  0  0  0  0  0
    8.7284    0.4710   -1.2236 H   0  0  0  0  0  0  0  0  0  0  0  0
    3.7382    6.6560   -2.0230 H   0  0  0  0  0  0  0  0  0  0  0  0
    2.5027   -0.1190    6.0318 H   0  0  0  0  0  0  0  0  0  0  0  0
   -1.0103   -4.1092   -3.7732 H   0  0  0  0  0  0  0  0  0  0  0  0
   -7.0157    0.3940    2.6834 O   0  0  0  0  0  0  0  0  0  0  0  0
    3.6258   -3.6055    1.7301 H   0  0  0  0  0  0  0  0  0  0  0  0
   -1.3330   -6.5321    2.7671 H   0  0  0  0  0  0  0  0  0  0  0  0
    1.2701   -3.7984    6.1901 H   0  0  0  0  0  0  0  0  0  0  0  0
    5.9157   -3.6018   -2.0451 H   0  0  0  0  0  0  0  0  0  0  0  0
   -0.1982    3.5820    3.7342 O   0  0  0  0  0  0  0  0  0  0  0  0
    1.9111   -8.2038   -0.5378 O   0  0  0  0  0  0  0  0  0  0  0  0
    6.8079   -3.5255    1.4420 H   0  0  0  0  0  0  0  0  0  0  0  0
   -1.4737    2.5970    0.8068 H   0  0  0  0  0  0  0  0  0  0  0  0
   -0.4988    0.5059   -3.5432 H   0  0  0  0  0  0  0  0  0  0  0  0
    3.8674    3.3332   -5.9078 O   0  0  0  0  0  0  0  0  0  0  0  0
    4.6166    3.7479   -6.3958 H   0  0  0  0  0  0  0  0  0  0  0  0
    1.7816   -0.5359   -6.3018 O   0  0  0  0  0  0  0  0  0  0  0  0
   -5.8541    1.4128   -0.6589 O   0  0  0  0  0  0  0  0  0  0  0  0
    4.2753    5.0314    1.3619 H   0  0  0  0  0  0  0  0  0  0  0  0
    4.2579    0.6173   -6.2020 O   0  0  0  0  0  0  0  0  0  0  0  0
   -1.9758    0.9552    4.3776 O   0  0  0  0  0  0  0  0  0  0  0  0
   -1.2493    0.4348   -5.5501 H   0  0  0  0  0  0  0  0  0  0  0  0
    3.5055   -0.6981   -0.7045 H   0  0  0  0  0  0  0  0  0  0  0  0
   -2.2057   -2.3699   -1.2425 O   0  0  0  0  0  0  0  0  0  0  0  0
    0.0399   -7.8743    2.4198 O   0  0  0  0  0  0  0  0  0  0  0  0
    1.8752    1.5312    2.3776 H   0  0  0  0  0  0  0  0  0  0  0  0
   -0.0018   -5.3791    0.1803 H   0  0  0  0  0  0  0  0  0  0  0  0
    6.6408   -0.7407    3.3068 O   0  0  0  0  0  0  0  0  0  0  0  0
    1.8938    5.2325   -5.5382 O   0  0  0  0  0  0  0  0  0  0  0  0
    2.6444   -6.6701   -4.6680 H   0  0  0  0  0  0  0  0  0  0  0  0
    1.4018   -7.4053   -0.6520 H   0  0  0  0  0  0  0  0  0  0  0  0
    3.4445    2.8684    4.4623 H   0  0  0  0  0  0  0  0  0  0  0  0
    4.9875    6.1643   -0.4940 H   0  0  0  0  0  0  0  0  0  0  0  0
   -0.1778    5.1099   -6.6095 H   0  0  0  0  0  0  0  0  0  0  0  0
   -3.8982    5.2803   -1.5032 H   0  0  0  0  0  0  0  0  0  0  0  0
    3.6156   -1.2898    3.9718 H   0  0  0  0  0  0  0  0  0  0  0  0
    2.9414   -0.1650    5.2060 O   0  0  0  0  0  0  0  0  0  0  0  0
    7.5799    0.5003   -2.3300 H   0  0  0  0  0  0  0  0  0  0  0  0
    4.7573   -1.3108    2.9816 H   0  0  0  0  0  0  0  0  0  0  0  0
    3.9207    2.4173   -6.1163 H   0  0  0  0  0  0  0  0  0  0  0  0
   -6.8265    1.3500   -0.3768 H   0  0  0  0  0  0  0  0  0  0  0  0
   -1.0473   -6.6904   -0.1131 H   0  0  0  0  0  0  0  0  0  0  0  0
    1.7467    7.3914   -1.4951 O   0  0  0  0  0  0  0  0  0  0  0  0
   -6.5376   -4.4373   -1.7130 O   0  0  0  0  0  0  0  0  0  0  0  0
    4.1827   -0.9864   -3.0822 H   0  0  0  0  0  0  0  0  0  0  0  0
    1.5347   -0.7318   -5.3632 H   0  0  0  0  0  0  0  0  0  0  0  0
   -0.6891   -2.9728   -0.2585 H   0  0  0  0  0  0  0  0  0  0  0  0
   -3.3961   -0.2225   -1.9577 O   0  0  0  0  0  0  0  0  0  0  0  0
   -0.9906    6.0940    2.4962 O   0  0  0  0  0  0  0  0  0  0  0  0
   -0.2541   -3.0778   -7.5594 H   0  0  0  0  0  0  0  0  0  0  0  0
   -4.6160    3.3186    0.9259 O   0  0  0  0  0  0  0  0  0  0  0  0
    0.8155    5.1644   -3.0214 O   0  0  0  0  0  0  0  0  0  0  0  0
    3.1227   -2.0658   -1.2030 H   0  0  0  0  0  0  0  0  0  0  0  0
   -1.7943    5.8064    1.9966 H   0  0  0  0  0  0  0  0  0  0  0  0
    7.3863    2.2908    2.6628 H   0  0  0  0  0  0  0  0  0  0  0  0
    1.0761    2.1466   -2.0073 O   0  0  0  0  0  0  0  0  0  0  0  0
    3.9079   -2.8463   -6.5240 H   0  0  0  0  0  0  0  0  0  0  0  0
   -0.5895    0.5310    0.0692 H   0  0  0  0  0  0  0  0  0  0  0  0
   -0.1963   -1.1997    4.7900 O   0  0  0  0  0  0  0  0  0  0  0  0
    3.3181   -1.1286   -1.5307 O   0  0  0  0  0  0  0  0  0  0  0  0
   -1.1978    7.0545    2.4539 H   0  0  0  0  0  0  0  0  0  0  0  0
    7.0885    0.0554    2.9674 H   0  0  0  0  0  0  0  0  0  0  0  0
    0.4201   -5.9841   -3.5928 H   0  0  0  0  0  0  0  0  0  0  0  0
    5.3190   -2.5285   -4.8134 H   0  0  0  0  0  0  0  0  0  0  0  0
   -6.2418   -4.9852    1.1144 H   0  0  0  0  0  0  0  0  0  0  0  0
    0.6943   -7.2720    1.9978 H   0  0  0  0  0  0  0  0  0  0  0  0
   -2.5722   -6.5872    1.9563 H   0  0  0  0  0  0  0  0  0  0  0  0
    2.0468    5.6392    1.0445 H   0  0  0  0  0  0  0  0  0  0  0  0
    2.4489    0.3622    4.5621 H   0  0  0  0  0  0  0  0  0  0  0  0
   -0.2540   -6.1233   -0.4444 O   0  0  0  0  0  0  0  0  0  0  0  0
   -0.4485   -5.8772   -2.3106 H   0  0  0  0  0  0  0  0  0  0  0  0
   -3.9678    3.8211   -2.1294 H   0  0  0  0  0  0  0  0  0  0  0  0
    2.6480   -2.0769   -6.9695 H   0  0  0  0  0  0  0  0  0  0  0  0
    1.2748   -8.9152   -0.3084 H   0  0  0  0  0  0  0  0  0  0  0  0
   -2.7635    0.2044   -2.6567 H   0  0  0  0  0  0  0  0  0  0  0  0
   -0.6729    3.6190    4.5744 H   0  0  0  0  0  0  0  0  0  0  0  0
   -1.0338   -2.7622   -7.1019 O   0  0  0  0  0  0  0  0  0  0  0  0
    0.5941    5.9672    1.4304 H   0  0  0  0  0  0  0  0  0  0  0  0
   -5.3500    4.1721   -3.9382 H   0  0  0  0  0  0  0  0  0  0  0  0
   -0.6443   -1.7923    4.1752 H   0  0  0  0  0  0  0  0  0  0  0  0
   -0.9783   -3.2640   -5.0562 H   0  0  0  0  0  0  0  0  0  0  0  0
   -0.8385    2.7893    7.0163 H   0  0  0  0  0  0  0  0  0  0  0  0
    3.8040    3.2821   -4.0201 H   0  0  0  0  0  0  0  0  0  0  0  0
   -2.2530   -6.2098    2.8296 O   0  0  0  0  0  0  0  0  0  0  0  0
    2.9791   -5.7969    1.4968 H   0  0  0  0  0  0  0  0  0  0  0  0
    1.2956   -0.9239   -2.8364 H   0  0  0  0  0  0  0  0  0  0  0  0
   -1.4183    3.8797   -3.6641 O   0  0  0  0  0  0  0  0  0  0  0  0
   -3.3591    4.4914   -1.7899 O   0  0  0  0  0  0  0  0  0  0  0  0
   -1.7729    1.8664    2.1224 H   0  0  0  0  0  0  0  0  0  0  0  0
    3.6302   -4.2952   -2.2812 H   0  0  0  0  0  0  0  0  0  0  0  0
    3.8768   -1.7132    3.1704 O   0  0  0  0  0  0  0  0  0  0  0  0
    2.6115   -3.5592    6.8431 H   0  0  0  0  0  0  0  0  0  0  0  0
   -2.6255   -2.2708   -4.2546 H   0  0  0  0  0  0  0  0  0  0  0  0
   -0.6505   -4.6867    5.5822 O   0  0  0  0  0  0  0  0  0  0  0  0
    1.3614    5.8977    4.7017 O   0  0  0  0  0  0  0  0  0  0  0  0
    6.2987   -2.5057   -0.9540 H   0  0  0  0  0  0  0  0  0  0  0  0
    4.0534    3.6673    4.4057 O   0  0  0  0  0  0  0  0  0  0  0  0
    1.8149   -3.0729    6.6213 O   0  0  0  0  0  0  0  0  0  0  0  0
   -0.9124    4.3487   -0.0894 O   0  0  0  0  0  0  0  0  0  0  0  0
   -3.4183    0.7921    3.3750 H   0  0  0  0  0  0  0  0  0  0  0  0
    0.5025   -1.6778    5.1877 H   0  0  0  0  0  0  0  0  0  0  0  0
    2.9522    1.8239    0.9448 O   0  0  0  0  0  0  0  0  0  0  0  0
    4.0773   -4.1954    1.0829 O   0  0  0  0  0  0  0  0  0  0  0  0
    0.7948    1.5292   -1.3714 H   0  0  0  0  0  0  0  0  0  0  0  0
   -5.0709   -1.4698   -4.5685 H   0  0  0  0  0  0  0  0  0  0  0  0
    4.5102   -5.5894   -2.5503 H   0  0  0  0  0  0  0  0  0  0  0  0
    0.1195   -1.6924   -3.8500 H   0  0  0  0  0  0  0  0  0  0  0  0
   -3.6492    0.4925   -1.3931 H   0  0  0  0  0  0  0  0  0  0  0  0
   -4.5329   -2.0165    1.0967 H   0  0  0  0  0  0  0  0  0  0  0  0
   -3.8161    6.3724    1.9508 H   0  0  0  0  0  0  0  0  0  0  0  0
   -0.8584   -0.0793   -6.3105 O   0  0  0  0  0  0  0  0  0  0  0  0
   -0.9784   -3.9539    5.0279 H   0  0  0  0  0  0  0  0  0  0  0  0
   -7.2761    4.1855    2.1202 H   0  0  0  0  0  0  0  0  0  0  0  0
    0.1752   -8.7569    1.9670 H   0  0  0  0  0  0  0  0  0  0  0  0
    2.2825   -6.2872    1.9617 O   0  0  0  0  0  0  0  0  0  0  0  0
   -1.1711    0.4180    4.3033 H   0  0  0  0  0  0  0  0  0  0  0  0
    6.1080    6.2653    0.5716 H   0  0  0  0  0  0  0  0  0  0  0  0
    6.8193   -0.8189    4.2577 H   0  0  0  0  0  0  0  0  0  0  0  0
    0.9130   -0.0913   -6.5361 H   0  0  0  0  0  0  0  0  0  0  0  0
   -6.1364   -1.4409   -1.1653 H   0  0  0  0  0  0  0  0  0  0  0  0
    2.7722   -5.2696   -4.1651 H   0  0  0  0  0  0  0  0  0  0  0  0
   -4.4902    2.1323   -3.9506 H   0  0  0  0  0  0  0  0  0  0  0  0
    2.0505   -5.6748    2.6597 H   0  0  0  0  0  0  0  0  0  0  0  0
   -3.8519    0.2721    2.0431 H   0  0  0  0  0  0  0  0  0  0  0  0
    5.1827    6.5134    0.3625 O   0  0  0  0  0  0  0  0  0  0  0  0
    2.5549    4.5142   -5.6936 H   0  0  0  0  0  0  0  0  0  0  0  0
   -4.4645    2.9071    1.7983 H   0  0  0  0  0  0  0  0  0  0  0  0
  1233  1  0
  1 14  1  0
102184  1  0
102176  1  0
 86194  1  0
 86117  1  0
109234  1  0
109143  1  0
190163  1  0
190 54  1  0
207 22  1  0
207225  1  0
216 80  1  0
216119  1  0
138227  1  0
138179  1  0
 19  4  1  0
 19 75  1  0
 97  5  1  0
 97160  1  0
197120  1  0
197180  1  0
 53 44  1  0
 53 91  1  0
183140  1  0
118 66  1  0
118  6  1  0
 12 64  1  0
 12178  1  0
 40 76  1  0
 40 92  1  0
137112  1  0
137 10  1  0
157 30  1  0
157 36  1  0
 42 60  1  0
 42 96  1  0
161221  1  0
142239  1  0
142 28  1  0
 18 37  1  0
 18127  1  0
 78147  1  0
165  8  1  0
165104  1  0
 85218  1  0
 85 74  1  0
156 24  1  0
156 48  1  0
 68  3  1  0
 68 63  1  0
 72206  1  0
 72 93  1  0
  2 73  1  0
  2192  1  0
224 52  1  0
224135  1  0
 38 31  1  0
 38223  1  0
169217  1  0
169 77  1  0
123189  1  0
123 50  1  0
 39 58  1  0
 39195  1  0
131154  1  0
131103  1  0
 87235  1  0
208 41  1  0
208 79  1  0
 23237  1  0
 23213  1  0
 25226  1  0
 25 15  1  0
 29181  1  0
 29191  1  0
212 34  1  0
212108  1  0
201148  1  0
201185  1  0
 71202  1  0
 71126  1  0
113 61  1  0
113171  1  0
172193  1  0
172214  1  0
164240  1  0
164 17  1  0
 57 70  1  0
 57222  1  0
162167  1  0
162174  1  0
134229  1  0
134 27  1  0
 45199  1  0
 45220  1  0
 20219  1  0
 20203  1  0
 47151  1  0
 47114  1  0
173166  1  0
173136  1  0
111186  1  0
111170  1  0
 90 94  1  0
 90177  1  0
204149  1  0
204152  1  0
 16  7  1  0
 16 88  1  0
 21 49  1  0
 21 13  1  0
 95 65  1  0
 95125  1  0
124144  1  0
124187  1  0
211121  1  0
211205  1  0
 55209  1  0
 55122  1  0
228198  1  0
228236  1  0
 43110  1  0
 43 51  1  0
130232  1  0
130159  1  0
105 83  1  0
105158  1  0
133 26  1  0
133 67  1  0
128129  1  0
128153  1  0
 59115  1  0
 59100  1  0
  9 32  1  0
 35 69  1  0
 35132  1  0
238230  1  0
238146  1  0
141231  1  0
141175  1  0
 46 11  1  0
 46 81  1  0
 56 82  1  0
 56168  1  0
150182  1  0
150116  1  0
210145  1  0
210 89  1  0
 84196  1  0
 84107  1  0
215101  1  0
215 62  1  0
M  END
$$$$
