
     RDKit          3D

 50 49  0  0  0  0  0  0  0  0999 V2000
   -5.9444    3.4766   -0.0016 C   0  0  0  0  0  0  0  0  0  0  0  0
    8.2603   -4.5267   -0.9059 H   0  0  0  0  0  0  0  0  0  0  0  0
    0.0464    1.1750   -0.9024 H   0  0  0  0  0  0  0  0  0  0  0  0
   -1.9784    2.5916   -0.9045 H   0  0  0  0  0  0  0  0  0  0  0  0
   -1.8375    0.6250    0.0000 C   0  0  0  0  0  0  0  0  0  0  0  0
   10.3382   -7.5304   -0.0044 H   0  0  0  0  0  0  0  0  0  0  0  0
   -3.8801    2.0688   -0.0009 C   0  0  0  0  0  0  0  0  0  0  0  0
    6.2347   -3.1109   -0.9066 H   0  0  0  0  0  0  0  0  0  0  0  0
   -4.2543    1.5380    0.9143 H   0  0  0  0  0  0  0  0  0  0  0  0
    3.9576   -4.1840    0.9021 H   0  0  0  0  0  0  0  0  0  0  0  0
    5.9823   -5.6002   -0.9059 H   0  0  0  0  0  0  0  0  0  0  0  0
    0.0428    1.1556    0.9155 H   0  0  0  0  0  0  0  0  0  0  0  0
    4.1530   -1.6761   -0.9030 H   0  0  0  0  0  0  0  0  0  0  0  0
   -6.3382    2.9542   -0.9069 H   0  0  0  0  0  0  0  0  0  0  0  0
    5.9840   -5.5996    0.9039 H   0  0  0  0  0  0  0  0  0  0  0  0
   -0.1504   -1.3329    0.9026 H   0  0  0  0  0  0  0  0  0  0  0  0
   -2.2319    0.1025    0.9050 H   0  0  0  0  0  0  0  0  0  0  0  0
    6.2358   -3.1106    0.9032 H   0  0  0  0  0  0  0  0  0  0  0  0
    7.8842   -5.0766   -0.0030 C   0  0  0  0  0  0  0  0  0  0  0  0
    8.0644   -7.0349   -0.9047 H   0  0  0  0  0  0  0  0  0  0  0  0
   -2.2320    0.1024   -0.9048 H   0  0  0  0  0  0  0  0  0  0  0  0
    0.2268   -0.7829    0.0002 C   0  0  0  0  0  0  0  0  0  0  0  0
   10.3440   -5.9604    0.8998 H   0  0  0  0  0  0  0  0  0  0  0  0
    2.2697   -2.2264    0.0004 C   0  0  0  0  0  0  0  0  0  0  0  0
    8.2584   -4.5457    0.9121 H   0  0  0  0  0  0  0  0  0  0  0  0
    1.7335   -0.7828    0.0001 C   0  0  0  0  0  0  0  0  0  0  0  0
    3.7764   -2.2262   -0.0004 C   0  0  0  0  0  0  0  0  0  0  0  0
    9.9490   -6.4837   -0.0044 C   0  0  0  0  0  0  0  0  0  0  0  0
   -0.3308    0.6250    0.0000 C   0  0  0  0  0  0  0  0  0  0  0  0
    6.3774   -5.0772   -0.0015 C   0  0  0  0  0  0  0  0  0  0  0  0
   -4.0610    4.0265    0.9020 H   0  0  0  0  0  0  0  0  0  0  0  0
    4.1504   -1.6955    0.9149 H   0  0  0  0  0  0  0  0  0  0  0  0
   -6.3393    2.9535    0.9028 H   0  0  0  0  0  0  0  0  0  0  0  0
    8.0661   -7.0342    0.9000 H   0  0  0  0  0  0  0  0  0  0  0  0
    2.1279   -0.2602   -0.9048 H   0  0  0  0  0  0  0  0  0  0  0  0
   -2.3734    2.0687    0.0000 C   0  0  0  0  0  0  0  0  0  0  0  0
   10.3423   -5.9612   -0.9099 H   0  0  0  0  0  0  0  0  0  0  0  0
    5.8410   -3.6336   -0.0014 C   0  0  0  0  0  0  0  0  0  0  0  0
    3.9566   -4.1842   -0.9026 H   0  0  0  0  0  0  0  0  0  0  0  0
   -4.4377    3.4766   -0.0007 C   0  0  0  0  0  0  0  0  0  0  0  0
   -4.0599    4.0270   -0.9027 H   0  0  0  0  0  0  0  0  0  0  0  0
    1.8758   -2.7490    0.9056 H   0  0  0  0  0  0  0  0  0  0  0  0
   -4.2568    1.5189   -0.9036 H   0  0  0  0  0  0  0  0  0  0  0  0
    2.1279   -0.2599    0.9049 H   0  0  0  0  0  0  0  0  0  0  0  0
    4.3343   -3.6339   -0.0005 C   0  0  0  0  0  0  0  0  0  0  0  0
   -0.1504   -1.3331   -0.9021 H   0  0  0  0  0  0  0  0  0  0  0  0
   -1.9795    2.5910    0.9053 H   0  0  0  0  0  0  0  0  0  0  0  0
   -6.3332    4.5234   -0.0015 H   0  0  0  0  0  0  0  0  0  0  0  0
    1.8748   -2.7491   -0.9043 H   0  0  0  0  0  0  0  0  0  0  0  0
    8.4422   -6.4843   -0.0029 C   0  0  0  0  0  0  0  0  0  0  0  0
  5 29  1  0
  5 21  1  0
  5 17  1  0
  5 36  1  0
 29 22  1  0
 29  3  1  0
 29 12  1  0
 22 26  1  0
 22 16  1  0
 22 46  1  0
 26 35  1  0
 26 44  1  0
 26 24  1  0
 24 27  1  0
 24 49  1  0
 24 42  1  0
 27 45  1  0
 27 13  1  0
 27 32  1  0
 45 38  1  0
 45 10  1  0
 45 39  1  0
 38  8  1  0
 38 18  1  0
 38 30  1  0
 36  7  1  0
 36  4  1  0
 36 47  1  0
  7 40  1  0
  7 43  1  0
  7  9  1  0
 40  1  1  0
 40 31  1  0
 40 41  1  0
  1 48  1  0
  1 14  1  0
  1 33  1  0
 30 19  1  0
 30 11  1  0
 30 15  1  0
 19 50  1  0
 19  2  1  0
 19 25  1  0
 50 28  1  0
 50 34  1  0
 50 20  1  0
 28  6  1  0
 28 37  1  0
 28 23  1  0
M  END
$$$$
