
     RDKit          3D

 98 97  0  0  0  0  0  0  0  0999 V2000
    7.8842   -5.0766   -0.0030 C   0  0  0  0  0  0  0  0  0  0  0  0
   -4.2568    1.5189   -0.9036 H   0  0  0  0  0  0  0  0  0  0  0  0
    6.2358   -3.1106    0.9032 H   0  0  0  0  0  0  0  0  0  0  0  0
    5.9840   -5.5996    0.9039 H   0  0  0  0  0  0  0  0  0  0  0  0
   -0.1504   -1.3331   -0.9021 H   0  0  0  0  0  0  0  0  0  0  0  0
   12.5508   -9.3338   -0.0063 C   0  0  0  0  0  0  0  0  0  0  0  0
   18.5562  -13.2280   -0.0127 H   0  0  0  0  0  0  0  0  0  0  0  0
   14.5945  -10.7763   -0.0081 C   0  0  0  0  0  0  0  0  0  0  0  0
   -4.0599    4.0270   -0.9027 H   0  0  0  0  0  0  0  0  0  0  0  0
   -0.3308    0.6250    0.0000 C   0  0  0  0  0  0  0  0  0  0  0  0
    8.0644   -7.0349   -0.9047 H   0  0  0  0  0  0  0  0  0  0  0  0
   11.9924   -7.9263   -0.0064 C   0  0  0  0  0  0  0  0  0  0  0  0
    2.1279   -0.2599    0.9049 H   0  0  0  0  0  0  0  0  0  0  0  0
    5.9823   -5.6002   -0.9059 H   0  0  0  0  0  0  0  0  0  0  0  0
    4.1530   -1.6761   -0.9030 H   0  0  0  0  0  0  0  0  0  0  0  0
  -14.5548    8.6550    0.8962 H   0  0  0  0  0  0  0  0  0  0  0  0
   10.3440   -5.9604    0.8998 H   0  0  0  0  0  0  0  0  0  0  0  0
   -4.2543    1.5380    0.9143 H   0  0  0  0  0  0  0  0  0  0  0  0
  -10.1949    8.2934    0.9028 H   0  0  0  0  0  0  0  0  0  0  0  0
   -4.0610    4.0265    0.9020 H   0  0  0  0  0  0  0  0  0  0  0  0
    8.2603   -4.5267   -0.9059 H   0  0  0  0  0  0  0  0  0  0  0  0
    1.7335   -0.7828    0.0001 C   0  0  0  0  0  0  0  0  0  0  0  0
  -10.4449    5.8064   -0.9101 H   0  0  0  0  0  0  0  0  0  0  0  0
  -10.5878    7.7718   -0.0034 C   0  0  0  0  0  0  0  0  0  0  0  0
   -6.4806    4.9202   -0.0015 C   0  0  0  0  0  0  0  0  0  0  0  0
   -5.9444    3.4766   -0.0016 C   0  0  0  0  0  0  0  0  0  0  0  0
   -6.3393    2.9535    0.9028 H   0  0  0  0  0  0  0  0  0  0  0  0
  -14.5481   10.2257   -0.0066 H   0  0  0  0  0  0  0  0  0  0  0  0
   16.2847  -12.7322    0.8931 H   0  0  0  0  0  0  0  0  0  0  0  0
    1.8748   -2.7491   -0.9043 H   0  0  0  0  0  0  0  0  0  0  0  0
    3.9566   -4.1842   -0.9026 H   0  0  0  0  0  0  0  0  0  0  0  0
   -4.4377    3.4766   -0.0007 C   0  0  0  0  0  0  0  0  0  0  0  0
  -10.4470    5.8045    0.8996 H   0  0  0  0  0  0  0  0  0  0  0  0
   -8.3620    4.3889    0.9114 H   0  0  0  0  0  0  0  0  0  0  0  0
    9.9490   -6.4837   -0.0044 C   0  0  0  0  0  0  0  0  0  0  0  0
   -3.8801    2.0688   -0.0009 C   0  0  0  0  0  0  0  0  0  0  0  0
  -12.2767    9.7283    0.8988 H   0  0  0  0  0  0  0  0  0  0  0  0
    2.2697   -2.2264    0.0004 C   0  0  0  0  0  0  0  0  0  0  0  0
    2.1279   -0.2602   -0.9048 H   0  0  0  0  0  0  0  0  0  0  0  0
  -10.0516    6.3282   -0.0042 C   0  0  0  0  0  0  0  0  0  0  0  0
   -1.8375    0.6250    0.0000 C   0  0  0  0  0  0  0  0  0  0  0  0
   -2.3734    2.0687    0.0000 C   0  0  0  0  0  0  0  0  0  0  0  0
   -6.0872    5.4419    0.9044 H   0  0  0  0  0  0  0  0  0  0  0  0
   -8.3635    4.3711   -0.9066 H   0  0  0  0  0  0  0  0  0  0  0  0
    1.8758   -2.7490    0.9056 H   0  0  0  0  0  0  0  0  0  0  0  0
   12.3681   -7.3765   -0.9096 H   0  0  0  0  0  0  0  0  0  0  0  0
   -8.1666    6.8792   -0.9038 H   0  0  0  0  0  0  0  0  0  0  0  0
    8.0661   -7.0342    0.9000 H   0  0  0  0  0  0  0  0  0  0  0  0
  -14.1591    9.1790   -0.0073 C   0  0  0  0  0  0  0  0  0  0  0  0
   -2.2320    0.1024   -0.9048 H   0  0  0  0  0  0  0  0  0  0  0  0
    3.9576   -4.1840    0.9021 H   0  0  0  0  0  0  0  0  0  0  0  0
   16.2815  -12.7338   -0.9116 H   0  0  0  0  0  0  0  0  0  0  0  0
  -12.6524    9.1793   -0.0049 C   0  0  0  0  0  0  0  0  0  0  0  0
   12.3670   -7.3951    0.9083 H   0  0  0  0  0  0  0  0  0  0  0  0
   10.0903   -8.4504   -0.9085 H   0  0  0  0  0  0  0  0  0  0  0  0
    4.3343   -3.6339   -0.0005 C   0  0  0  0  0  0  0  0  0  0  0  0
    8.4422   -6.4843   -0.0029 C   0  0  0  0  0  0  0  0  0  0  0  0
   10.0928   -8.4494    0.9014 H   0  0  0  0  0  0  0  0  0  0  0  0
    6.2347   -3.1109   -0.9066 H   0  0  0  0  0  0  0  0  0  0  0  0
   -0.1504   -1.3329    0.9026 H   0  0  0  0  0  0  0  0  0  0  0  0
   -8.1687    6.8774    0.9009 H   0  0  0  0  0  0  0  0  0  0  0  0
  -12.4695    7.2398    0.9085 H   0  0  0  0  0  0  0  0  0  0  0  0
   14.2020  -11.2984    0.8979 H   0  0  0  0  0  0  0  0  0  0  0  0
   -7.9873    4.9203   -0.0032 C   0  0  0  0  0  0  0  0  0  0  0  0
    5.8410   -3.6336   -0.0014 C   0  0  0  0  0  0  0  0  0  0  0  0
   16.4765  -10.2256   -0.9142 H   0  0  0  0  0  0  0  0  0  0  0  0
   12.1751   -9.8836    0.8969 H   0  0  0  0  0  0  0  0  0  0  0  0
   14.0575   -9.3330   -0.0083 C   0  0  0  0  0  0  0  0  0  0  0  0
   14.4504   -8.8106   -0.9141 H   0  0  0  0  0  0  0  0  0  0  0  0
   -6.3382    2.9542   -0.9069 H   0  0  0  0  0  0  0  0  0  0  0  0
   18.5622  -11.6576    0.8907 H   0  0  0  0  0  0  0  0  0  0  0  0
  -12.4702    7.2225   -0.9095 H   0  0  0  0  0  0  0  0  0  0  0  0
    0.2268   -0.7829    0.0002 C   0  0  0  0  0  0  0  0  0  0  0  0
   14.1989  -11.3000   -0.9119 H   0  0  0  0  0  0  0  0  0  0  0  0
   16.4760  -10.2436    0.9038 H   0  0  0  0  0  0  0  0  0  0  0  0
   18.1666  -12.1815   -0.0130 C   0  0  0  0  0  0  0  0  0  0  0  0
    3.7764   -2.2262   -0.0004 C   0  0  0  0  0  0  0  0  0  0  0  0
   -6.0850    5.4437   -0.9054 H   0  0  0  0  0  0  0  0  0  0  0  0
   16.1013  -10.7752   -0.0107 C   0  0  0  0  0  0  0  0  0  0  0  0
   -2.2319    0.1025    0.9050 H   0  0  0  0  0  0  0  0  0  0  0  0
    0.0428    1.1556    0.9155 H   0  0  0  0  0  0  0  0  0  0  0  0
   -8.5449    6.3282   -0.0024 C   0  0  0  0  0  0  0  0  0  0  0  0
   -1.9795    2.5910    0.9053 H   0  0  0  0  0  0  0  0  0  0  0  0
   -1.9784    2.5916   -0.9045 H   0  0  0  0  0  0  0  0  0  0  0  0
    6.3774   -5.0772   -0.0015 C   0  0  0  0  0  0  0  0  0  0  0  0
  -10.1919    8.2956   -0.9070 H   0  0  0  0  0  0  0  0  0  0  0  0
    8.2584   -4.5457    0.9121 H   0  0  0  0  0  0  0  0  0  0  0  0
   14.4528   -8.8094    0.8956 H   0  0  0  0  0  0  0  0  0  0  0  0
  -12.0945    7.7716   -0.0058 C   0  0  0  0  0  0  0  0  0  0  0  0
   10.4857   -7.9271   -0.0044 C   0  0  0  0  0  0  0  0  0  0  0  0
    4.1504   -1.6955    0.9149 H   0  0  0  0  0  0  0  0  0  0  0  0
   10.3423   -5.9612   -0.9099 H   0  0  0  0  0  0  0  0  0  0  0  0
    0.0464    1.1750   -0.9024 H   0  0  0  0  0  0  0  0  0  0  0  0
   18.5590  -11.6593   -0.9190 H   0  0  0  0  0  0  0  0  0  0  0  0
   16.6599  -12.1826   -0.0104 C   0  0  0  0  0  0  0  0  0  0  0  0
  -14.5519    8.6574   -0.9135 H   0  0  0  0  0  0  0  0  0  0  0  0
   12.1727   -9.8847   -0.9078 H   0  0  0  0  0  0  0  0  0  0  0  0
  -12.2738    9.7307   -0.9059 H   0  0  0  0  0  0  0  0  0  0  0  0
 41 10  1  0
 41 50  1  0
 41 80  1  0
 41 42  1  0
 10 73  1  0
 10 93  1  0
 10 81  1  0
 73 22  1  0
 73 60  1  0
 73  5  1  0
 22 39  1  0
 22 13  1  0
 22 38  1  0
 38 77  1  0
 38 30  1  0
 38 45  1  0
 77 56  1  0
 77 15  1  0
 77 91  1  0
 56 65  1  0
 56 51  1  0
 56 31  1  0
 65 59  1  0
 65  3  1  0
 65 85  1  0
 42 36  1  0
 42 84  1  0
 42 83  1  0
 36 32  1  0
 36  2  1  0
 36 18  1  0
 32 26  1  0
 32 20  1  0
 32  9  1  0
 26 70  1  0
 26 27  1  0
 26 25  1  0
 85  1  1  0
 85 14  1  0
 85  4  1  0
  1 57  1  0
  1 21  1  0
  1 87  1  0
 57 35  1  0
 57 48  1  0
 57 11  1  0
 35 92  1  0
 35 17  1  0
 35 90  1  0
 25 64  1  0
 25 78  1  0
 25 43  1  0
 64 82  1  0
 64 44  1  0
 64 34  1  0
 82 40  1  0
 82 61  1  0
 82 47  1  0
 40 23  1  0
 40 33  1  0
 40 24  1  0
 90 12  1  0
 90 55  1  0
 90 58  1  0
 12  6  1  0
 12 46  1  0
 12 54  1  0
  6 68  1  0
  6 67  1  0
  6 97  1  0
 68 69  1  0
 68 88  1  0
 68  8  1  0
 24 89  1  0
 24 86  1  0
 24 19  1  0
 89 53  1  0
 89 72  1  0
 89 62  1  0
 53 49  1  0
 53 37  1  0
 53 98  1  0
 49 28  1  0
 49 96  1  0
 49 16  1  0
  8 79  1  0
  8 74  1  0
  8 63  1  0
 79 95  1  0
 79 66  1  0
 79 75  1  0
 95 76  1  0
 95 29  1  0
 95 52  1  0
 76  7  1  0
 76 94  1  0
 76 71  1  0
M  END
$$$$
