
     RDKit          3D

122121  0  0  0  0  0  0  0  0999 V2000
   -4.0610    4.0265    0.9020 H   0  0  0  0  0  0  0  0  0  0  0  0
  -18.4119   13.9936    0.8968 H   0  0  0  0  0  0  0  0  0  0  0  0
   14.2020  -11.2984    0.8979 H   0  0  0  0  0  0  0  0  0  0  0  0
   -8.1687    6.8774    0.9009 H   0  0  0  0  0  0  0  0  0  0  0  0
    2.1279   -0.2602   -0.9048 H   0  0  0  0  0  0  0  0  0  0  0  0
  -12.6524    9.1793   -0.0049 C   0  0  0  0  0  0  0  0  0  0  0  0
   14.5945  -10.7763   -0.0081 C   0  0  0  0  0  0  0  0  0  0  0  0
    3.9576   -4.1840    0.9021 H   0  0  0  0  0  0  0  0  0  0  0  0
    6.3774   -5.0772   -0.0015 C   0  0  0  0  0  0  0  0  0  0  0  0
  -10.0516    6.3282   -0.0042 C   0  0  0  0  0  0  0  0  0  0  0  0
   -0.1504   -1.3329    0.9026 H   0  0  0  0  0  0  0  0  0  0  0  0
  -12.4695    7.2398    0.9085 H   0  0  0  0  0  0  0  0  0  0  0  0
   16.6599  -12.1826   -0.0104 C   0  0  0  0  0  0  0  0  0  0  0  0
    2.1279   -0.2599    0.9049 H   0  0  0  0  0  0  0  0  0  0  0  0
    8.0644   -7.0349   -0.9047 H   0  0  0  0  0  0  0  0  0  0  0  0
  -10.4470    5.8045    0.8996 H   0  0  0  0  0  0  0  0  0  0  0  0
   18.5562  -13.2280   -0.0127 H   0  0  0  0  0  0  0  0  0  0  0  0
  -14.5519    8.6574   -0.9135 H   0  0  0  0  0  0  0  0  0  0  0  0
   -2.2320    0.1024   -0.9048 H   0  0  0  0  0  0  0  0  0  0  0  0
   18.5590  -11.6593   -0.9190 H   0  0  0  0  0  0  0  0  0  0  0  0
   -7.9873    4.9203   -0.0032 C   0  0  0  0  0  0  0  0  0  0  0  0
  -12.4702    7.2225   -0.9095 H   0  0  0  0  0  0  0  0  0  0  0  0
    5.8410   -3.6336   -0.0014 C   0  0  0  0  0  0  0  0  0  0  0  0
   -2.2319    0.1025    0.9050 H   0  0  0  0  0  0  0  0  0  0  0  0
    7.8842   -5.0766   -0.0030 C   0  0  0  0  0  0  0  0  0  0  0  0
    0.0464    1.1750   -0.9024 H   0  0  0  0  0  0  0  0  0  0  0  0
  -14.3031   11.1439    0.9001 H   0  0  0  0  0  0  0  0  0  0  0  0
  -12.2767    9.7283    0.8988 H   0  0  0  0  0  0  0  0  0  0  0  0
   10.0928   -8.4494    0.9014 H   0  0  0  0  0  0  0  0  0  0  0  0
   16.1013  -10.7752   -0.0107 C   0  0  0  0  0  0  0  0  0  0  0  0
   -8.1666    6.8792   -0.9038 H   0  0  0  0  0  0  0  0  0  0  0  0
    8.0661   -7.0342    0.9000 H   0  0  0  0  0  0  0  0  0  0  0  0
  -12.2738    9.7307   -0.9059 H   0  0  0  0  0  0  0  0  0  0  0  0
  -18.2672   12.0290   -0.0112 C   0  0  0  0  0  0  0  0  0  0  0  0
  -20.4943   15.4278    0.8920 H   0  0  0  0  0  0  0  0  0  0  0  0
    9.9490   -6.4837   -0.0044 C   0  0  0  0  0  0  0  0  0  0  0  0
   -4.2543    1.5380    0.9143 H   0  0  0  0  0  0  0  0  0  0  0  0
   -2.3734    2.0687    0.0000 C   0  0  0  0  0  0  0  0  0  0  0  0
  -22.7652   15.9248   -0.0148 H   0  0  0  0  0  0  0  0  0  0  0  0
   12.3670   -7.3951    0.9083 H   0  0  0  0  0  0  0  0  0  0  0  0
   14.1989  -11.3000   -0.9119 H   0  0  0  0  0  0  0  0  0  0  0  0
  -10.1949    8.2934    0.9028 H   0  0  0  0  0  0  0  0  0  0  0  0
    1.8758   -2.7490    0.9056 H   0  0  0  0  0  0  0  0  0  0  0  0
  -20.6854   12.9228   -0.9177 H   0  0  0  0  0  0  0  0  0  0  0  0
    4.1504   -1.6955    0.9149 H   0  0  0  0  0  0  0  0  0  0  0  0
    2.2697   -2.2264    0.0004 C   0  0  0  0  0  0  0  0  0  0  0  0
  -20.3106   13.4715   -0.0135 C   0  0  0  0  0  0  0  0  0  0  0  0
  -16.3817   12.5812   -0.9090 H   0  0  0  0  0  0  0  0  0  0  0  0
  -18.8039   13.4724   -0.0100 C   0  0  0  0  0  0  0  0  0  0  0  0
  -16.2023   10.6220   -0.0092 C   0  0  0  0  0  0  0  0  0  0  0  0
   -4.4377    3.4766   -0.0007 C   0  0  0  0  0  0  0  0  0  0  0  0
   -3.8801    2.0688   -0.0009 C   0  0  0  0  0  0  0  0  0  0  0  0
  -22.7719   14.3535    0.8872 H   0  0  0  0  0  0  0  0  0  0  0  0
  -16.5775   10.0730   -0.9132 H   0  0  0  0  0  0  0  0  0  0  0  0
   -5.9444    3.4766   -0.0016 C   0  0  0  0  0  0  0  0  0  0  0  0
   -0.1504   -1.3331   -0.9021 H   0  0  0  0  0  0  0  0  0  0  0  0
   14.4528   -8.8094    0.8956 H   0  0  0  0  0  0  0  0  0  0  0  0
    3.7764   -2.2262   -0.0004 C   0  0  0  0  0  0  0  0  0  0  0  0
   -0.3308    0.6250    0.0000 C   0  0  0  0  0  0  0  0  0  0  0  0
   -6.0872    5.4419    0.9044 H   0  0  0  0  0  0  0  0  0  0  0  0
   -6.4806    4.9202   -0.0015 C   0  0  0  0  0  0  0  0  0  0  0  0
  -10.5878    7.7718   -0.0034 C   0  0  0  0  0  0  0  0  0  0  0  0
  -22.7677   14.3568   -0.9225 H   0  0  0  0  0  0  0  0  0  0  0  0
  -18.4076   13.9968   -0.9131 H   0  0  0  0  0  0  0  0  0  0  0  0
  -22.3758   14.8782   -0.0158 C   0  0  0  0  0  0  0  0  0  0  0  0
   18.1666  -12.1815   -0.0130 C   0  0  0  0  0  0  0  0  0  0  0  0
   -6.3393    2.9535    0.9028 H   0  0  0  0  0  0  0  0  0  0  0  0
  -16.3852   12.5785    0.8957 H   0  0  0  0  0  0  0  0  0  0  0  0
    0.0428    1.1556    0.9155 H   0  0  0  0  0  0  0  0  0  0  0  0
    1.7335   -0.7828    0.0001 C   0  0  0  0  0  0  0  0  0  0  0  0
   14.4504   -8.8106   -0.9141 H   0  0  0  0  0  0  0  0  0  0  0  0
    5.9823   -5.6002   -0.9059 H   0  0  0  0  0  0  0  0  0  0  0  0
   -4.0599    4.0270   -0.9027 H   0  0  0  0  0  0  0  0  0  0  0  0
  -12.0945    7.7716   -0.0058 C   0  0  0  0  0  0  0  0  0  0  0  0
    1.8748   -2.7491   -0.9043 H   0  0  0  0  0  0  0  0  0  0  0  0
   10.3423   -5.9612   -0.9099 H   0  0  0  0  0  0  0  0  0  0  0  0
    4.1530   -1.6761   -0.9030 H   0  0  0  0  0  0  0  0  0  0  0  0
    6.2347   -3.1109   -0.9066 H   0  0  0  0  0  0  0  0  0  0  0  0
  -20.8690   14.8791   -0.0122 C   0  0  0  0  0  0  0  0  0  0  0  0
  -14.5548    8.6550    0.8962 H   0  0  0  0  0  0  0  0  0  0  0  0
  -14.1591    9.1790   -0.0073 C   0  0  0  0  0  0  0  0  0  0  0  0
  -16.5775   10.0900    0.9048 H   0  0  0  0  0  0  0  0  0  0  0  0
  -14.6956   10.6225   -0.0063 C   0  0  0  0  0  0  0  0  0  0  0  0
   14.0575   -9.3330   -0.0083 C   0  0  0  0  0  0  0  0  0  0  0  0
   16.4765  -10.2256   -0.9142 H   0  0  0  0  0  0  0  0  0  0  0  0
    8.2584   -4.5457    0.9121 H   0  0  0  0  0  0  0  0  0  0  0  0
   -1.8375    0.6250    0.0000 C   0  0  0  0  0  0  0  0  0  0  0  0
   -6.3382    2.9542   -0.9069 H   0  0  0  0  0  0  0  0  0  0  0  0
  -18.6631   11.5047    0.8921 H   0  0  0  0  0  0  0  0  0  0  0  0
    5.9840   -5.5996    0.9039 H   0  0  0  0  0  0  0  0  0  0  0  0
    0.2268   -0.7829    0.0002 C   0  0  0  0  0  0  0  0  0  0  0  0
   -8.5449    6.3282   -0.0024 C   0  0  0  0  0  0  0  0  0  0  0  0
   11.9924   -7.9263   -0.0064 C   0  0  0  0  0  0  0  0  0  0  0  0
   16.4760  -10.2436    0.9038 H   0  0  0  0  0  0  0  0  0  0  0  0
   10.3440   -5.9604    0.8998 H   0  0  0  0  0  0  0  0  0  0  0  0
   16.2847  -12.7322    0.8931 H   0  0  0  0  0  0  0  0  0  0  0  0
   12.5508   -9.3338   -0.0063 C   0  0  0  0  0  0  0  0  0  0  0  0
   -8.3635    4.3711   -0.9066 H   0  0  0  0  0  0  0  0  0  0  0  0
   -4.2568    1.5189   -0.9036 H   0  0  0  0  0  0  0  0  0  0  0  0
  -10.4449    5.8064   -0.9101 H   0  0  0  0  0  0  0  0  0  0  0  0
   10.4857   -7.9271   -0.0044 C   0  0  0  0  0  0  0  0  0  0  0  0
    4.3343   -3.6339   -0.0005 C   0  0  0  0  0  0  0  0  0  0  0  0
   -1.9795    2.5910    0.9053 H   0  0  0  0  0  0  0  0  0  0  0  0
  -20.6860   12.9392    0.9003 H   0  0  0  0  0  0  0  0  0  0  0  0
   12.3681   -7.3765   -0.9096 H   0  0  0  0  0  0  0  0  0  0  0  0
   -8.3620    4.3889    0.9114 H   0  0  0  0  0  0  0  0  0  0  0  0
    8.2603   -4.5267   -0.9059 H   0  0  0  0  0  0  0  0  0  0  0  0
  -16.7604   12.0296   -0.0082 C   0  0  0  0  0  0  0  0  0  0  0  0
    6.2358   -3.1106    0.9032 H   0  0  0  0  0  0  0  0  0  0  0  0
   12.1727   -9.8847   -0.9078 H   0  0  0  0  0  0  0  0  0  0  0  0
   -6.0850    5.4437   -0.9054 H   0  0  0  0  0  0  0  0  0  0  0  0
   -1.9784    2.5916   -0.9045 H   0  0  0  0  0  0  0  0  0  0  0  0
   12.1751   -9.8836    0.8969 H   0  0  0  0  0  0  0  0  0  0  0  0
    3.9566   -4.1842   -0.9026 H   0  0  0  0  0  0  0  0  0  0  0  0
    8.4422   -6.4843   -0.0029 C   0  0  0  0  0  0  0  0  0  0  0  0
   10.0903   -8.4504   -0.9085 H   0  0  0  0  0  0  0  0  0  0  0  0
  -14.2995   11.1466   -0.9097 H   0  0  0  0  0  0  0  0  0  0  0  0
   18.5622  -11.6576    0.8907 H   0  0  0  0  0  0  0  0  0  0  0  0
  -20.4900   15.4310   -0.9127 H   0  0  0  0  0  0  0  0  0  0  0  0
  -18.6595   11.5075   -0.9176 H   0  0  0  0  0  0  0  0  0  0  0  0
   16.2815  -12.7338   -0.9116 H   0  0  0  0  0  0  0  0  0  0  0  0
  -10.1919    8.2956   -0.9070 H   0  0  0  0  0  0  0  0  0  0  0  0
 87 59  1  0
 87 19  1  0
 87 24  1  0
 87 38  1  0
 59 91  1  0
 59 26  1  0
 59 69  1  0
 91 70  1  0
 91 11  1  0
 91 56  1  0
 70  5  1  0
 70 14  1  0
 70 46  1  0
 46 58  1  0
 46 75  1  0
 46 43  1  0
 58102  1  0
 58 77  1  0
 58 45  1  0
102 23  1  0
102  8  1  0
102114  1  0
 23 78  1  0
 23109  1  0
 23  9  1  0
 38 52  1  0
 38112  1  0
 38103  1  0
 52 51  1  0
 52 99  1  0
 52 37  1  0
 51 55  1  0
 51  1  1  0
 51 73  1  0
 55 88  1  0
 55 67  1  0
 55 61  1  0
  9 25  1  0
  9 72  1  0
  9 90  1  0
 25115  1  0
 25107  1  0
 25 86  1  0
115 36  1  0
115 32  1  0
115 15  1  0
 36 76  1  0
 36 95  1  0
 36101  1  0
 61 21  1  0
 61111  1  0
 61 60  1  0
 21 92  1  0
 21 98  1  0
 21106  1  0
 92 10  1  0
 92  4  1  0
 92 31  1  0
 10100  1  0
 10 16  1  0
 10 62  1  0
101 93  1  0
101116  1  0
101 29  1  0
 93 97  1  0
 93105  1  0
 93 40  1  0
 97 84  1  0
 97113  1  0
 97110  1  0
 84 71  1  0
 84 57  1  0
 84  7  1  0
 62 74  1  0
 62122  1  0
 62 42  1  0
 74  6  1  0
 74 22  1  0
 74 12  1  0
  6 81  1  0
  6 28  1  0
  6 33  1  0
 81 18  1  0
 81 80  1  0
 81 83  1  0
  7 30  1  0
  7 41  1  0
  7  3  1  0
 30 13  1  0
 30 85  1  0
 30 94  1  0
 13 66  1  0
 13 96  1  0
 13121  1  0
 66 17  1  0
 66 20  1  0
 66118  1  0
 83 50  1  0
 83117  1  0
 83 27  1  0
 50108  1  0
 50 54  1  0
 50 82  1  0
108 34  1  0
108 68  1  0
108 48  1  0
 34120  1  0
 34 89  1  0
 34 49  1  0
 49 47  1  0
 49 64  1  0
 49  2  1  0
 47 79  1  0
 47 44  1  0
 47104  1  0
 79 65  1  0
 79 35  1  0
 79119  1  0
 65 39  1  0
 65 63  1  0
 65 53  1  0
M  END
$$$$
