122
test
 C   2.2421   -2.2435   -2.6918
 C  -0.4506   -1.1248   -2.5041
 H  -1.9726   -8.5252    0.6996
 C   0.4557    1.2857    3.8858
 H   3.0217   -2.2691   -4.7242
 C  -4.5549   -0.1494   -0.7659
 H  -0.3801    3.1166    3.0560
 H  -6.9934   -0.8947   -3.1173
 C  -2.4984   -1.8258   -1.2449
 H  -3.4584   -2.0070   -2.4587
 C  -0.9728   -1.8441   -1.2466
 H  -6.9958   -3.2877   -2.3432
 H   0.3261   -5.5450    0.7465
 H  -1.4925   -4.6430   -2.4229
 H   0.8359    1.7979    4.8090
 C   1.4318    0.1884    3.4725
 C   0.7813   -0.2964   -2.1517
 H  -6.9809   -3.6669   -0.5714
 H  -2.0226   -6.1209    1.4119
 H  -2.8844   -2.3369    2.1640
 H  -3.4352   -0.1400   -0.7734
 C  -4.5779   -1.9981   -2.4347
 H  -6.9767    0.4503   -1.9033
 H  -0.9951   -2.7596   -3.8318
 C  -1.5552    0.9890    1.7867
 C   0.7868    0.5093    1.0885
 H   0.6431   -3.6117   -2.1344
 H  -1.6292    1.4668    4.4857
 H   0.6639   -1.1324    0.0000
 C  -0.4831   -3.2891   -1.2451
 H   2.1799    1.0430   -3.1464
 C   0.0082   -5.8330   -1.3878
 H   0.5137    0.4580   -1.3652
 H   3.6537   -0.9213   -3.6911
 H  -0.2601   -9.2686   -0.9754
 C  -6.6052   -2.9534   -1.3484
 C  -0.9725   -1.8439    1.2468
 H  -0.8496   -3.8148   -2.1634
 H   1.7884    0.9572    0.8648
 C  -1.4284   -0.0286    2.9164
 C   2.7412   -1.5211   -3.9395
 C   1.8772   -1.2171   -1.6235
 H   0.6368   -3.3100    1.2576
 C  -0.9997   -4.0032    0.0003
 C   1.6463   -0.6008   -4.4703
 C  -1.1423   -7.8350    0.4025
 H  -0.3179   -7.9424    1.1527
 C  -1.6463   -6.3950    0.3908
 C  -2.2689   -6.6348   -2.0116
 H   1.5204   -1.7409   -0.7003
 H  -2.9120   -4.5151   -0.9054
 H   1.6350   -1.3157    1.9142
 H  -4.9483   -2.3230   -3.4402
 H   0.6708   -2.1758   -5.6136
 H  -0.2847    2.3552    0.6681
 H   0.4863    1.1100   -3.7870
 H   0.4193    0.0020    0.1602
 H   1.3238    2.7676    2.5479
 H  -6.9559   -0.0760    0.5564
 C  -5.0796   -2.9612   -1.3630
 C  -3.0173   -2.5383    0.0004
 C  -0.6305   -8.2093   -0.9851
 H  -2.4329   -0.4824    3.1272
 C  -5.0772   -0.5888   -2.1304
 C  -0.4500   -1.1244    2.5041
 H  -2.8850   -2.3369   -2.1632
 C   0.5102   -7.2737   -1.3741
 H  -1.9459    0.4865    0.8655
 H   2.4400    0.6330    3.2726
 C  -0.9101    0.6683    4.1708
 C   0.4135   -1.4287   -4.8201
 H   1.3510   -7.3755   -0.6416
 H   0.6364   -3.3103   -1.2577
 H  -0.8490   -3.8145    2.1638
 H  -1.3985   -8.3586   -3.0167
 H  -0.3606   -1.8814    3.3243
 H  -3.6255   -6.9369   -0.3360
 C  -2.7789   -6.2624   -0.6227
 C   1.2820    0.4237   -3.4001
 H   1.5400   -0.5555    4.3025
 C  -1.1264   -5.7010   -2.3994
 C  -1.7642   -8.0746   -1.9972
 H  -0.3908   -0.7608   -5.2212
 H  -4.9123   -3.2282    0.7911
 H  -1.2636   -0.4539   -2.8820
 H  -2.8649   -0.7678    1.2580
 H   2.0145   -0.0700   -5.3880
 C  -0.1902    1.6069    1.4990
 H  -0.8022   -0.0675    0.0000
 H   0.8985   -7.5497   -2.3875
 H  -2.8651   -0.7678   -1.2572
 C  -2.4981   -1.8257    1.2456
 H   1.2717   -3.8329   -3.8194
 H  -3.1027   -6.5369   -2.7563
 H  -0.8252   -0.0708    5.0077
 H   3.0482   -2.9201   -2.3022
 H  -2.9118   -4.5149    0.9065
 C  -7.1068   -1.5452   -1.0429
 H  -4.7118   -3.9973   -1.5878
 H  -3.1615   -5.2100   -0.6287
 C  -5.0566   -1.1104    0.3077
 C   1.0085   -3.0696   -3.0435
 C  -6.5822   -1.1048    0.3203
 H   2.7810   -0.6143   -1.3522
 C  -0.4828   -3.2889    1.2454
 C  -4.5572   -2.5190    0.0006
 H  -2.2807    1.7907    2.0780
 C   0.9163   -0.5090    2.2173
 C  -0.4559   -1.1324    0.0000
 C  -0.5046   -5.4614    0.0003
 C  -0.0884   -2.1510   -3.5734
 C  -6.6028   -0.5838   -2.1150
 H  -2.6008   -8.7671   -1.7241
 H  -8.2290   -1.5407   -1.0324
 H  -4.7076    0.1186   -2.9193
 C  -2.5252   -3.9824    0.0004
 H  -4.6718   -0.7863    1.3108
 H  -6.9575   -1.8000    1.1139
 H  -0.7543   -5.9614   -3.4229
 H  -4.9084    0.8890   -0.5408
 H   0.8479   -5.1458   -1.6740
 C   0.3267    2.3019    2.7551